
---------- Begin Simulation Statistics ----------
final_tick                               807359870652750                       # Number of ticks from beginning of simulation (restored from checkpoints and never reset)
host_inst_rate                                  27067                       # Simulator instruction rate (inst/s)
host_mem_usage                               17067192                       # Number of bytes of host memory used
host_op_rate                                    45023                       # Simulator op (including micro ops) rate (op/s)
host_seconds                                  3694.56                       # Real time elapsed on the host
host_tick_rate                               24689108                       # Simulator tick rate (ticks/s)
sim_freq                                 1000000000000                       # Frequency of simulated ticks
sim_insts                                   100000000                       # Number of instructions simulated
sim_ops                                     166338920                       # Number of ops (including micro ops) simulated
sim_seconds                                  0.091215                       # Number of seconds simulated
sim_ticks                                 91215433500                       # Number of ticks simulated
system.cpu.committedInsts                           0                       # Number of instructions committed
system.cpu.dcache.DataMeta::0                       0                       # Distribution of access
system.cpu.dcache.DataMeta::1                       0                       # Distribution of access
system.cpu.dcache.DataMeta::2                       0                       # Distribution of access
system.cpu.dcache.DataMeta::3                       0                       # Distribution of access
system.cpu.dcache.HardPFReq_avg_mshr_miss_latency::.cpu.dcache.prefetcher 69528.370598                       # average HardPFReq mshr miss latency
system.cpu.dcache.HardPFReq_avg_mshr_miss_latency::total 69528.370598                       # average HardPFReq mshr miss latency
system.cpu.dcache.HardPFReq_mshr_miss_latency::.cpu.dcache.prefetcher 216190611668                       # number of HardPFReq MSHR miss cycles
system.cpu.dcache.HardPFReq_mshr_miss_latency::total 216190611668                       # number of HardPFReq MSHR miss cycles
system.cpu.dcache.HardPFReq_mshr_miss_rate::.cpu.dcache.prefetcher          inf                       # mshr miss rate for HardPFReq accesses
system.cpu.dcache.HardPFReq_mshr_miss_rate::total          inf                       # mshr miss rate for HardPFReq accesses
system.cpu.dcache.HardPFReq_mshr_misses::.cpu.dcache.prefetcher      3109387                       # number of HardPFReq MSHR misses
system.cpu.dcache.HardPFReq_mshr_misses::total      3109387                       # number of HardPFReq MSHR misses
system.cpu.dcache.ReadReq_accesses::.switch_cpus.data     13506227                       # number of ReadReq accesses(hits+misses)
system.cpu.dcache.ReadReq_accesses::total     13506227                       # number of ReadReq accesses(hits+misses)
system.cpu.dcache.ReadReq_avg_miss_latency::.switch_cpus.data 46746.093094                       # average ReadReq miss latency
system.cpu.dcache.ReadReq_avg_miss_latency::total 46746.093094                       # average ReadReq miss latency
system.cpu.dcache.ReadReq_avg_mshr_miss_latency::.switch_cpus.data 23736.020795                       # average ReadReq mshr miss latency
system.cpu.dcache.ReadReq_avg_mshr_miss_latency::total 23736.020795                       # average ReadReq mshr miss latency
system.cpu.dcache.ReadReq_hits::.switch_cpus.data     11161469                       # number of ReadReq hits
system.cpu.dcache.ReadReq_hits::total        11161469                       # number of ReadReq hits
system.cpu.dcache.ReadReq_miss_latency::.switch_cpus.data 109608275750                       # number of ReadReq miss cycles
system.cpu.dcache.ReadReq_miss_latency::total 109608275750                       # number of ReadReq miss cycles
system.cpu.dcache.ReadReq_miss_rate::.switch_cpus.data     0.173606                       # miss rate for ReadReq accesses
system.cpu.dcache.ReadReq_miss_rate::total     0.173606                       # miss rate for ReadReq accesses
system.cpu.dcache.ReadReq_misses::.switch_cpus.data      2344758                       # number of ReadReq misses
system.cpu.dcache.ReadReq_misses::total       2344758                       # number of ReadReq misses
system.cpu.dcache.ReadReq_mshr_hits::.switch_cpus.data      2170678                       # number of ReadReq MSHR hits
system.cpu.dcache.ReadReq_mshr_hits::total      2170678                       # number of ReadReq MSHR hits
system.cpu.dcache.ReadReq_mshr_miss_latency::.switch_cpus.data   4131966500                       # number of ReadReq MSHR miss cycles
system.cpu.dcache.ReadReq_mshr_miss_latency::total   4131966500                       # number of ReadReq MSHR miss cycles
system.cpu.dcache.ReadReq_mshr_miss_rate::.switch_cpus.data     0.012889                       # mshr miss rate for ReadReq accesses
system.cpu.dcache.ReadReq_mshr_miss_rate::total     0.012889                       # mshr miss rate for ReadReq accesses
system.cpu.dcache.ReadReq_mshr_misses::.switch_cpus.data       174080                       # number of ReadReq MSHR misses
system.cpu.dcache.ReadReq_mshr_misses::total       174080                       # number of ReadReq MSHR misses
system.cpu.dcache.SoftPFReq_accesses::.switch_cpus.data           52                       # number of SoftPFReq accesses(hits+misses)
system.cpu.dcache.SoftPFReq_accesses::total           52                       # number of SoftPFReq accesses(hits+misses)
system.cpu.dcache.SoftPFReq_avg_mshr_miss_latency::.switch_cpus.data 73119.047619                       # average SoftPFReq mshr miss latency
system.cpu.dcache.SoftPFReq_avg_mshr_miss_latency::total 73119.047619                       # average SoftPFReq mshr miss latency
system.cpu.dcache.SoftPFReq_hits::.switch_cpus.data           10                       # number of SoftPFReq hits
system.cpu.dcache.SoftPFReq_hits::total            10                       # number of SoftPFReq hits
system.cpu.dcache.SoftPFReq_miss_rate::.switch_cpus.data     0.807692                       # miss rate for SoftPFReq accesses
system.cpu.dcache.SoftPFReq_miss_rate::total     0.807692                       # miss rate for SoftPFReq accesses
system.cpu.dcache.SoftPFReq_misses::.switch_cpus.data           42                       # number of SoftPFReq misses
system.cpu.dcache.SoftPFReq_misses::total           42                       # number of SoftPFReq misses
system.cpu.dcache.SoftPFReq_mshr_miss_latency::.switch_cpus.data      3071000                       # number of SoftPFReq MSHR miss cycles
system.cpu.dcache.SoftPFReq_mshr_miss_latency::total      3071000                       # number of SoftPFReq MSHR miss cycles
system.cpu.dcache.SoftPFReq_mshr_miss_rate::.switch_cpus.data     0.807692                       # mshr miss rate for SoftPFReq accesses
system.cpu.dcache.SoftPFReq_mshr_miss_rate::total     0.807692                       # mshr miss rate for SoftPFReq accesses
system.cpu.dcache.SoftPFReq_mshr_misses::.switch_cpus.data           42                       # number of SoftPFReq MSHR misses
system.cpu.dcache.SoftPFReq_mshr_misses::total           42                       # number of SoftPFReq MSHR misses
system.cpu.dcache.WriteReq_accesses::.switch_cpus.data     37963840                       # number of WriteReq accesses(hits+misses)
system.cpu.dcache.WriteReq_accesses::total     37963840                       # number of WriteReq accesses(hits+misses)
system.cpu.dcache.WriteReq_avg_miss_latency::.switch_cpus.data 39596.569126                       # average WriteReq miss latency
system.cpu.dcache.WriteReq_avg_miss_latency::total 39596.569126                       # average WriteReq miss latency
system.cpu.dcache.WriteReq_avg_mshr_miss_latency::.switch_cpus.data 12968.201850                       # average WriteReq mshr miss latency
system.cpu.dcache.WriteReq_avg_mshr_miss_latency::total 12968.201850                       # average WriteReq mshr miss latency
system.cpu.dcache.WriteReq_hits::.switch_cpus.data     36690462                       # number of WriteReq hits
system.cpu.dcache.WriteReq_hits::total       36690462                       # number of WriteReq hits
system.cpu.dcache.WriteReq_miss_latency::.switch_cpus.data  50421400000                       # number of WriteReq miss cycles
system.cpu.dcache.WriteReq_miss_latency::total  50421400000                       # number of WriteReq miss cycles
system.cpu.dcache.WriteReq_miss_rate::.switch_cpus.data     0.033542                       # miss rate for WriteReq accesses
system.cpu.dcache.WriteReq_miss_rate::total     0.033542                       # miss rate for WriteReq accesses
system.cpu.dcache.WriteReq_misses::.switch_cpus.data      1273378                       # number of WriteReq misses
system.cpu.dcache.WriteReq_misses::total      1273378                       # number of WriteReq misses
system.cpu.dcache.WriteReq_mshr_hits::.switch_cpus.data       503687                       # number of WriteReq MSHR hits
system.cpu.dcache.WriteReq_mshr_hits::total       503687                       # number of WriteReq MSHR hits
system.cpu.dcache.WriteReq_mshr_miss_latency::.switch_cpus.data   9981508250                       # number of WriteReq MSHR miss cycles
system.cpu.dcache.WriteReq_mshr_miss_latency::total   9981508250                       # number of WriteReq MSHR miss cycles
system.cpu.dcache.WriteReq_mshr_miss_rate::.switch_cpus.data     0.020274                       # mshr miss rate for WriteReq accesses
system.cpu.dcache.WriteReq_mshr_miss_rate::total     0.020274                       # mshr miss rate for WriteReq accesses
system.cpu.dcache.WriteReq_mshr_misses::.switch_cpus.data       769691                       # number of WriteReq MSHR misses
system.cpu.dcache.WriteReq_mshr_misses::total       769691                       # number of WriteReq MSHR misses
system.cpu.dcache.WriteReq_mshr_uncacheable::.switch_cpus.data           92                       # number of WriteReq MSHR uncacheable
system.cpu.dcache.WriteReq_mshr_uncacheable::total           92                       # number of WriteReq MSHR uncacheable
system.cpu.dcache.avg_blocked_cycles::no_mshrs    55.916667                       # average number of cycles each access was blocked
system.cpu.dcache.avg_blocked_cycles::no_targets   331.500000                       # average number of cycles each access was blocked
system.cpu.dcache.blocked::no_mshrs                12                       # number of cycles access was blocked
system.cpu.dcache.blocked::no_targets               4                       # number of cycles access was blocked
system.cpu.dcache.blocked_cycles::no_mshrs          671                       # number of cycles access was blocked
system.cpu.dcache.blocked_cycles::no_targets         1326                       # number of cycles access was blocked
system.cpu.dcache.demand_accesses::.switch_cpus.data     51470067                       # number of demand (read+write) accesses
system.cpu.dcache.demand_accesses::total     51470067                       # number of demand (read+write) accesses
system.cpu.dcache.demand_avg_miss_latency::.switch_cpus.data 44229.867465                       # average overall miss latency
system.cpu.dcache.demand_avg_miss_latency::total 44229.867465                       # average overall miss latency
system.cpu.dcache.demand_avg_mshr_miss_latency::.switch_cpus.data 14954.342473                       # average overall mshr miss latency
system.cpu.dcache.demand_avg_mshr_miss_latency::total 14954.342473                       # average overall mshr miss latency
system.cpu.dcache.demand_hits::.switch_cpus.data     47851931                       # number of demand (read+write) hits
system.cpu.dcache.demand_hits::total         47851931                       # number of demand (read+write) hits
system.cpu.dcache.demand_miss_latency::.switch_cpus.data 160029675750                       # number of demand (read+write) miss cycles
system.cpu.dcache.demand_miss_latency::total 160029675750                       # number of demand (read+write) miss cycles
system.cpu.dcache.demand_miss_rate::.switch_cpus.data     0.070296                       # miss rate for demand accesses
system.cpu.dcache.demand_miss_rate::total     0.070296                       # miss rate for demand accesses
system.cpu.dcache.demand_misses::.switch_cpus.data      3618136                       # number of demand (read+write) misses
system.cpu.dcache.demand_misses::total        3618136                       # number of demand (read+write) misses
system.cpu.dcache.demand_mshr_hits::.switch_cpus.data      2674365                       # number of demand (read+write) MSHR hits
system.cpu.dcache.demand_mshr_hits::total      2674365                       # number of demand (read+write) MSHR hits
system.cpu.dcache.demand_mshr_miss_latency::.switch_cpus.data  14113474750                       # number of demand (read+write) MSHR miss cycles
system.cpu.dcache.demand_mshr_miss_latency::total  14113474750                       # number of demand (read+write) MSHR miss cycles
system.cpu.dcache.demand_mshr_miss_rate::.switch_cpus.data     0.018336                       # mshr miss rate for demand accesses
system.cpu.dcache.demand_mshr_miss_rate::total     0.018336                       # mshr miss rate for demand accesses
system.cpu.dcache.demand_mshr_misses::.switch_cpus.data       943771                       # number of demand (read+write) MSHR misses
system.cpu.dcache.demand_mshr_misses::total       943771                       # number of demand (read+write) MSHR misses
system.cpu.dcache.overall_accesses::.switch_cpus.data     51470119                       # number of overall (read+write) accesses
system.cpu.dcache.overall_accesses::total     51470119                       # number of overall (read+write) accesses
system.cpu.dcache.overall_avg_miss_latency::.switch_cpus.data 44229.354042                       # average overall miss latency
system.cpu.dcache.overall_avg_miss_latency::total 44229.354042                       # average overall miss latency
system.cpu.dcache.overall_avg_mshr_miss_latency::.cpu.dcache.prefetcher 69528.370598                       # average overall mshr miss latency
system.cpu.dcache.overall_avg_mshr_miss_latency::.switch_cpus.data 14956.930822                       # average overall mshr miss latency
system.cpu.dcache.overall_avg_mshr_miss_latency::total 56821.069135                       # average overall mshr miss latency
system.cpu.dcache.overall_hits::.switch_cpus.data     47851941                       # number of overall hits
system.cpu.dcache.overall_hits::total        47851941                       # number of overall hits
system.cpu.dcache.overall_miss_latency::.switch_cpus.data 160029675750                       # number of overall miss cycles
system.cpu.dcache.overall_miss_latency::total 160029675750                       # number of overall miss cycles
system.cpu.dcache.overall_miss_rate::.switch_cpus.data     0.070297                       # miss rate for overall accesses
system.cpu.dcache.overall_miss_rate::total     0.070297                       # miss rate for overall accesses
system.cpu.dcache.overall_misses::.switch_cpus.data      3618178                       # number of overall misses
system.cpu.dcache.overall_misses::total       3618178                       # number of overall misses
system.cpu.dcache.overall_mshr_hits::.switch_cpus.data      2674365                       # number of overall MSHR hits
system.cpu.dcache.overall_mshr_hits::total      2674365                       # number of overall MSHR hits
system.cpu.dcache.overall_mshr_miss_latency::.cpu.dcache.prefetcher 216190611668                       # number of overall MSHR miss cycles
system.cpu.dcache.overall_mshr_miss_latency::.switch_cpus.data  14116545750                       # number of overall MSHR miss cycles
system.cpu.dcache.overall_mshr_miss_latency::total 230307157418                       # number of overall MSHR miss cycles
system.cpu.dcache.overall_mshr_miss_rate::.cpu.dcache.prefetcher          inf                       # mshr miss rate for overall accesses
system.cpu.dcache.overall_mshr_miss_rate::.switch_cpus.data     0.018337                       # mshr miss rate for overall accesses
system.cpu.dcache.overall_mshr_miss_rate::total     0.078749                       # mshr miss rate for overall accesses
system.cpu.dcache.overall_mshr_misses::.cpu.dcache.prefetcher      3109387                       # number of overall MSHR misses
system.cpu.dcache.overall_mshr_misses::.switch_cpus.data       943813                       # number of overall MSHR misses
system.cpu.dcache.overall_mshr_misses::total      4053200                       # number of overall MSHR misses
system.cpu.dcache.overall_mshr_uncacheable_misses::.switch_cpus.data           92                       # number of overall MSHR uncacheable misses
system.cpu.dcache.overall_mshr_uncacheable_misses::total           92                       # number of overall MSHR uncacheable misses
system.cpu.dcache.prefetcher.num_hwpf_issued      6510710                       # number of hwpf issued
system.cpu.dcache.prefetcher.pfBufferHit       343617                       # number of redundant prefetches already in prefetch queue
system.cpu.dcache.prefetcher.pfIdentified      7032790                       # number of prefetch candidates identified
system.cpu.dcache.prefetcher.pfInCache              0                       # number of redundant prefetches already in cache/mshr dropped
system.cpu.dcache.prefetcher.pfRemovedFull            0                       # number of prefetches dropped due to prefetch queue size
system.cpu.dcache.prefetcher.pfSpanPage        203482                       # number of prefetches that crossed the page
system.cpu.dcache.replacements                4049399                       # number of replacements
system.cpu.dcache.tags.age_task_id_blocks_1022::0          227                       # Occupied blocks per task id
system.cpu.dcache.tags.age_task_id_blocks_1022::1          440                       # Occupied blocks per task id
system.cpu.dcache.tags.age_task_id_blocks_1025::0          114                       # Occupied blocks per task id
system.cpu.dcache.tags.age_task_id_blocks_1025::1          241                       # Occupied blocks per task id
system.cpu.dcache.tags.age_task_id_blocks_1025::3            2                       # Occupied blocks per task id
system.cpu.dcache.tags.avg_refs             12.364722                       # Average number of references to valid blocks.
system.cpu.dcache.tags.data_accesses        415811375                       # Number of data accesses
system.cpu.dcache.tags.occ_blocks::.cpu.dcache.prefetcher   774.551105                       # Average occupied blocks per requestor
system.cpu.dcache.tags.occ_blocks::.switch_cpus.data   249.366513                       # Average occupied blocks per requestor
system.cpu.dcache.tags.occ_percent::.cpu.dcache.prefetcher     0.756398                       # Average percentage of cache occupancy
system.cpu.dcache.tags.occ_percent::.switch_cpus.data     0.243522                       # Average percentage of cache occupancy
system.cpu.dcache.tags.occ_percent::total     0.999920                       # Average percentage of cache occupancy
system.cpu.dcache.tags.occ_task_id_blocks::1022          667                       # Occupied blocks per task id
system.cpu.dcache.tags.occ_task_id_blocks::1025          357                       # Occupied blocks per task id
system.cpu.dcache.tags.occ_task_id_percent::1022     0.651367                       # Percentage of cache occupancy per task id
system.cpu.dcache.tags.occ_task_id_percent::1025     0.348633                       # Percentage of cache occupancy per task id
system.cpu.dcache.tags.sampled_refs           4049399                       # Sample count of references to valid blocks.
system.cpu.dcache.tags.tag_accesses         415811375                       # Number of tag accesses
system.cpu.dcache.tags.tagsinuse          1023.917618                       # Cycle average of tags in use
system.cpu.dcache.tags.total_refs            50069691                       # Total number of references to valid blocks.
system.cpu.dcache.tags.warmup_cycle      807268655801000                       # Cycle when the warmup percentage was hit.
system.cpu.dcache.tlbTagged.rdAccesses              0                       # TLB accesses on read requests
system.cpu.dcache.tlbTagged.rdMisses                0                       # TLB misses on read requests
system.cpu.dcache.tlbTagged.wrAccesses              0                       # TLB accesses on write requests
system.cpu.dcache.tlbTagged.wrMisses                0                       # TLB misses on write requests
system.cpu.dcache.unused_prefetches            127733                       # number of HardPF blocks evicted w/o reference
system.cpu.dcache.writebacks::.writebacks      3220554                       # number of writebacks
system.cpu.dcache.writebacks::total           3220554                       # number of writebacks
system.cpu.dtb.rdAccesses                           0                       # TLB accesses on read requests
system.cpu.dtb.rdMisses                             0                       # TLB misses on read requests
system.cpu.dtb.wrAccesses                           0                       # TLB accesses on write requests
system.cpu.dtb.wrMisses                             0                       # TLB misses on write requests
system.cpu.dtb_walker_cache.DataMeta::0             0                       # Distribution of access
system.cpu.dtb_walker_cache.DataMeta::1             0                       # Distribution of access
system.cpu.dtb_walker_cache.DataMeta::2             0                       # Distribution of access
system.cpu.dtb_walker_cache.DataMeta::3             0                       # Distribution of access
system.cpu.dtb_walker_cache.ReadReq_accesses::.switch_cpus.dtb.walker        23168                       # number of ReadReq accesses(hits+misses)
system.cpu.dtb_walker_cache.ReadReq_accesses::total        23168                       # number of ReadReq accesses(hits+misses)
system.cpu.dtb_walker_cache.ReadReq_avg_miss_latency::.switch_cpus.dtb.walker 18904.261237                       # average ReadReq miss latency
system.cpu.dtb_walker_cache.ReadReq_avg_miss_latency::total 18904.261237                       # average ReadReq miss latency
system.cpu.dtb_walker_cache.ReadReq_avg_mshr_miss_latency::.switch_cpus.dtb.walker 18404.261237                       # average ReadReq mshr miss latency
system.cpu.dtb_walker_cache.ReadReq_avg_mshr_miss_latency::total 18404.261237                       # average ReadReq mshr miss latency
system.cpu.dtb_walker_cache.ReadReq_hits::.switch_cpus.dtb.walker        18674                       # number of ReadReq hits
system.cpu.dtb_walker_cache.ReadReq_hits::total        18674                       # number of ReadReq hits
system.cpu.dtb_walker_cache.ReadReq_miss_latency::.switch_cpus.dtb.walker     84955750                       # number of ReadReq miss cycles
system.cpu.dtb_walker_cache.ReadReq_miss_latency::total     84955750                       # number of ReadReq miss cycles
system.cpu.dtb_walker_cache.ReadReq_miss_rate::.switch_cpus.dtb.walker     0.193974                       # miss rate for ReadReq accesses
system.cpu.dtb_walker_cache.ReadReq_miss_rate::total     0.193974                       # miss rate for ReadReq accesses
system.cpu.dtb_walker_cache.ReadReq_misses::.switch_cpus.dtb.walker         4494                       # number of ReadReq misses
system.cpu.dtb_walker_cache.ReadReq_misses::total         4494                       # number of ReadReq misses
system.cpu.dtb_walker_cache.ReadReq_mshr_miss_latency::.switch_cpus.dtb.walker     82708750                       # number of ReadReq MSHR miss cycles
system.cpu.dtb_walker_cache.ReadReq_mshr_miss_latency::total     82708750                       # number of ReadReq MSHR miss cycles
system.cpu.dtb_walker_cache.ReadReq_mshr_miss_rate::.switch_cpus.dtb.walker     0.193974                       # mshr miss rate for ReadReq accesses
system.cpu.dtb_walker_cache.ReadReq_mshr_miss_rate::total     0.193974                       # mshr miss rate for ReadReq accesses
system.cpu.dtb_walker_cache.ReadReq_mshr_misses::.switch_cpus.dtb.walker         4494                       # number of ReadReq MSHR misses
system.cpu.dtb_walker_cache.ReadReq_mshr_misses::total         4494                       # number of ReadReq MSHR misses
system.cpu.dtb_walker_cache.avg_blocked_cycles::no_mshrs          nan                       # average number of cycles each access was blocked
system.cpu.dtb_walker_cache.avg_blocked_cycles::no_targets          nan                       # average number of cycles each access was blocked
system.cpu.dtb_walker_cache.blocked::no_mshrs            0                       # number of cycles access was blocked
system.cpu.dtb_walker_cache.blocked::no_targets            0                       # number of cycles access was blocked
system.cpu.dtb_walker_cache.blocked_cycles::no_mshrs            0                       # number of cycles access was blocked
system.cpu.dtb_walker_cache.blocked_cycles::no_targets            0                       # number of cycles access was blocked
system.cpu.dtb_walker_cache.demand_accesses::.switch_cpus.dtb.walker        23168                       # number of demand (read+write) accesses
system.cpu.dtb_walker_cache.demand_accesses::total        23168                       # number of demand (read+write) accesses
system.cpu.dtb_walker_cache.demand_avg_miss_latency::.switch_cpus.dtb.walker 18904.261237                       # average overall miss latency
system.cpu.dtb_walker_cache.demand_avg_miss_latency::total 18904.261237                       # average overall miss latency
system.cpu.dtb_walker_cache.demand_avg_mshr_miss_latency::.switch_cpus.dtb.walker 18404.261237                       # average overall mshr miss latency
system.cpu.dtb_walker_cache.demand_avg_mshr_miss_latency::total 18404.261237                       # average overall mshr miss latency
system.cpu.dtb_walker_cache.demand_hits::.switch_cpus.dtb.walker        18674                       # number of demand (read+write) hits
system.cpu.dtb_walker_cache.demand_hits::total        18674                       # number of demand (read+write) hits
system.cpu.dtb_walker_cache.demand_miss_latency::.switch_cpus.dtb.walker     84955750                       # number of demand (read+write) miss cycles
system.cpu.dtb_walker_cache.demand_miss_latency::total     84955750                       # number of demand (read+write) miss cycles
system.cpu.dtb_walker_cache.demand_miss_rate::.switch_cpus.dtb.walker     0.193974                       # miss rate for demand accesses
system.cpu.dtb_walker_cache.demand_miss_rate::total     0.193974                       # miss rate for demand accesses
system.cpu.dtb_walker_cache.demand_misses::.switch_cpus.dtb.walker         4494                       # number of demand (read+write) misses
system.cpu.dtb_walker_cache.demand_misses::total         4494                       # number of demand (read+write) misses
system.cpu.dtb_walker_cache.demand_mshr_miss_latency::.switch_cpus.dtb.walker     82708750                       # number of demand (read+write) MSHR miss cycles
system.cpu.dtb_walker_cache.demand_mshr_miss_latency::total     82708750                       # number of demand (read+write) MSHR miss cycles
system.cpu.dtb_walker_cache.demand_mshr_miss_rate::.switch_cpus.dtb.walker     0.193974                       # mshr miss rate for demand accesses
system.cpu.dtb_walker_cache.demand_mshr_miss_rate::total     0.193974                       # mshr miss rate for demand accesses
system.cpu.dtb_walker_cache.demand_mshr_misses::.switch_cpus.dtb.walker         4494                       # number of demand (read+write) MSHR misses
system.cpu.dtb_walker_cache.demand_mshr_misses::total         4494                       # number of demand (read+write) MSHR misses
system.cpu.dtb_walker_cache.overall_accesses::.switch_cpus.dtb.walker        23168                       # number of overall (read+write) accesses
system.cpu.dtb_walker_cache.overall_accesses::total        23168                       # number of overall (read+write) accesses
system.cpu.dtb_walker_cache.overall_avg_miss_latency::.switch_cpus.dtb.walker 18904.261237                       # average overall miss latency
system.cpu.dtb_walker_cache.overall_avg_miss_latency::total 18904.261237                       # average overall miss latency
system.cpu.dtb_walker_cache.overall_avg_mshr_miss_latency::.switch_cpus.dtb.walker 18404.261237                       # average overall mshr miss latency
system.cpu.dtb_walker_cache.overall_avg_mshr_miss_latency::total 18404.261237                       # average overall mshr miss latency
system.cpu.dtb_walker_cache.overall_hits::.switch_cpus.dtb.walker        18674                       # number of overall hits
system.cpu.dtb_walker_cache.overall_hits::total        18674                       # number of overall hits
system.cpu.dtb_walker_cache.overall_miss_latency::.switch_cpus.dtb.walker     84955750                       # number of overall miss cycles
system.cpu.dtb_walker_cache.overall_miss_latency::total     84955750                       # number of overall miss cycles
system.cpu.dtb_walker_cache.overall_miss_rate::.switch_cpus.dtb.walker     0.193974                       # miss rate for overall accesses
system.cpu.dtb_walker_cache.overall_miss_rate::total     0.193974                       # miss rate for overall accesses
system.cpu.dtb_walker_cache.overall_misses::.switch_cpus.dtb.walker         4494                       # number of overall misses
system.cpu.dtb_walker_cache.overall_misses::total         4494                       # number of overall misses
system.cpu.dtb_walker_cache.overall_mshr_miss_latency::.switch_cpus.dtb.walker     82708750                       # number of overall MSHR miss cycles
system.cpu.dtb_walker_cache.overall_mshr_miss_latency::total     82708750                       # number of overall MSHR miss cycles
system.cpu.dtb_walker_cache.overall_mshr_miss_rate::.switch_cpus.dtb.walker     0.193974                       # mshr miss rate for overall accesses
system.cpu.dtb_walker_cache.overall_mshr_miss_rate::total     0.193974                       # mshr miss rate for overall accesses
system.cpu.dtb_walker_cache.overall_mshr_misses::.switch_cpus.dtb.walker         4494                       # number of overall MSHR misses
system.cpu.dtb_walker_cache.overall_mshr_misses::total         4494                       # number of overall MSHR misses
system.cpu.dtb_walker_cache.replacements         4435                       # number of replacements
system.cpu.dtb_walker_cache.tags.age_task_id_blocks_1025::1            2                       # Occupied blocks per task id
system.cpu.dtb_walker_cache.tags.age_task_id_blocks_1025::3            6                       # Occupied blocks per task id
system.cpu.dtb_walker_cache.tags.age_task_id_blocks_1025::4            8                       # Occupied blocks per task id
system.cpu.dtb_walker_cache.tags.avg_refs     4.872711                       # Average number of references to valid blocks.
system.cpu.dtb_walker_cache.tags.data_accesses        50830                       # Number of data accesses
system.cpu.dtb_walker_cache.tags.occ_blocks::.switch_cpus.dtb.walker    15.826322                       # Average occupied blocks per requestor
system.cpu.dtb_walker_cache.tags.occ_percent::.switch_cpus.dtb.walker     0.989145                       # Average percentage of cache occupancy
system.cpu.dtb_walker_cache.tags.occ_percent::total     0.989145                       # Average percentage of cache occupancy
system.cpu.dtb_walker_cache.tags.occ_task_id_blocks::1025           16                       # Occupied blocks per task id
system.cpu.dtb_walker_cache.tags.occ_task_id_percent::1025            1                       # Percentage of cache occupancy per task id
system.cpu.dtb_walker_cache.tags.sampled_refs         4478                       # Sample count of references to valid blocks.
system.cpu.dtb_walker_cache.tags.tag_accesses        50830                       # Number of tag accesses
system.cpu.dtb_walker_cache.tags.tagsinuse    15.826322                       # Cycle average of tags in use
system.cpu.dtb_walker_cache.tags.total_refs        21820                       # Total number of references to valid blocks.
system.cpu.dtb_walker_cache.tags.warmup_cycle 807268655648000                       # Cycle when the warmup percentage was hit.
system.cpu.dtb_walker_cache.tlbTagged.rdAccesses            0                       # TLB accesses on read requests
system.cpu.dtb_walker_cache.tlbTagged.rdMisses            0                       # TLB misses on read requests
system.cpu.dtb_walker_cache.tlbTagged.wrAccesses            0                       # TLB accesses on write requests
system.cpu.dtb_walker_cache.tlbTagged.wrMisses            0                       # TLB misses on write requests
system.cpu.icache.DataMeta::0                       0                       # Distribution of access
system.cpu.icache.DataMeta::1                       0                       # Distribution of access
system.cpu.icache.DataMeta::2                       0                       # Distribution of access
system.cpu.icache.DataMeta::3                       0                       # Distribution of access
system.cpu.icache.ReadReq_accesses::.switch_cpus.inst      8741469                       # number of ReadReq accesses(hits+misses)
system.cpu.icache.ReadReq_accesses::total      8741469                       # number of ReadReq accesses(hits+misses)
system.cpu.icache.ReadReq_avg_miss_latency::.switch_cpus.inst 38851.313454                       # average ReadReq miss latency
system.cpu.icache.ReadReq_avg_miss_latency::total 38851.313454                       # average ReadReq miss latency
system.cpu.icache.ReadReq_avg_mshr_miss_latency::.switch_cpus.inst 38359.775641                       # average ReadReq mshr miss latency
system.cpu.icache.ReadReq_avg_mshr_miss_latency::total 38359.775641                       # average ReadReq mshr miss latency
system.cpu.icache.ReadReq_hits::.switch_cpus.inst      8727384                       # number of ReadReq hits
system.cpu.icache.ReadReq_hits::total         8727384                       # number of ReadReq hits
system.cpu.icache.ReadReq_miss_latency::.switch_cpus.inst    547220750                       # number of ReadReq miss cycles
system.cpu.icache.ReadReq_miss_latency::total    547220750                       # number of ReadReq miss cycles
system.cpu.icache.ReadReq_miss_rate::.switch_cpus.inst     0.001611                       # miss rate for ReadReq accesses
system.cpu.icache.ReadReq_miss_rate::total     0.001611                       # miss rate for ReadReq accesses
system.cpu.icache.ReadReq_misses::.switch_cpus.inst        14085                       # number of ReadReq misses
system.cpu.icache.ReadReq_misses::total         14085                       # number of ReadReq misses
system.cpu.icache.ReadReq_mshr_hits::.switch_cpus.inst         2853                       # number of ReadReq MSHR hits
system.cpu.icache.ReadReq_mshr_hits::total         2853                       # number of ReadReq MSHR hits
system.cpu.icache.ReadReq_mshr_miss_latency::.switch_cpus.inst    430857000                       # number of ReadReq MSHR miss cycles
system.cpu.icache.ReadReq_mshr_miss_latency::total    430857000                       # number of ReadReq MSHR miss cycles
system.cpu.icache.ReadReq_mshr_miss_rate::.switch_cpus.inst     0.001285                       # mshr miss rate for ReadReq accesses
system.cpu.icache.ReadReq_mshr_miss_rate::total     0.001285                       # mshr miss rate for ReadReq accesses
system.cpu.icache.ReadReq_mshr_misses::.switch_cpus.inst        11232                       # number of ReadReq MSHR misses
system.cpu.icache.ReadReq_mshr_misses::total        11232                       # number of ReadReq MSHR misses
system.cpu.icache.avg_blocked_cycles::no_mshrs          nan                       # average number of cycles each access was blocked
system.cpu.icache.avg_blocked_cycles::no_targets          nan                       # average number of cycles each access was blocked
system.cpu.icache.blocked::no_mshrs                 0                       # number of cycles access was blocked
system.cpu.icache.blocked::no_targets               0                       # number of cycles access was blocked
system.cpu.icache.blocked_cycles::no_mshrs            0                       # number of cycles access was blocked
system.cpu.icache.blocked_cycles::no_targets            0                       # number of cycles access was blocked
system.cpu.icache.demand_accesses::.switch_cpus.inst      8741469                       # number of demand (read+write) accesses
system.cpu.icache.demand_accesses::total      8741469                       # number of demand (read+write) accesses
system.cpu.icache.demand_avg_miss_latency::.switch_cpus.inst 38851.313454                       # average overall miss latency
system.cpu.icache.demand_avg_miss_latency::total 38851.313454                       # average overall miss latency
system.cpu.icache.demand_avg_mshr_miss_latency::.switch_cpus.inst 38359.775641                       # average overall mshr miss latency
system.cpu.icache.demand_avg_mshr_miss_latency::total 38359.775641                       # average overall mshr miss latency
system.cpu.icache.demand_hits::.switch_cpus.inst      8727384                       # number of demand (read+write) hits
system.cpu.icache.demand_hits::total          8727384                       # number of demand (read+write) hits
system.cpu.icache.demand_miss_latency::.switch_cpus.inst    547220750                       # number of demand (read+write) miss cycles
system.cpu.icache.demand_miss_latency::total    547220750                       # number of demand (read+write) miss cycles
system.cpu.icache.demand_miss_rate::.switch_cpus.inst     0.001611                       # miss rate for demand accesses
system.cpu.icache.demand_miss_rate::total     0.001611                       # miss rate for demand accesses
system.cpu.icache.demand_misses::.switch_cpus.inst        14085                       # number of demand (read+write) misses
system.cpu.icache.demand_misses::total          14085                       # number of demand (read+write) misses
system.cpu.icache.demand_mshr_hits::.switch_cpus.inst         2853                       # number of demand (read+write) MSHR hits
system.cpu.icache.demand_mshr_hits::total         2853                       # number of demand (read+write) MSHR hits
system.cpu.icache.demand_mshr_miss_latency::.switch_cpus.inst    430857000                       # number of demand (read+write) MSHR miss cycles
system.cpu.icache.demand_mshr_miss_latency::total    430857000                       # number of demand (read+write) MSHR miss cycles
system.cpu.icache.demand_mshr_miss_rate::.switch_cpus.inst     0.001285                       # mshr miss rate for demand accesses
system.cpu.icache.demand_mshr_miss_rate::total     0.001285                       # mshr miss rate for demand accesses
system.cpu.icache.demand_mshr_misses::.switch_cpus.inst        11232                       # number of demand (read+write) MSHR misses
system.cpu.icache.demand_mshr_misses::total        11232                       # number of demand (read+write) MSHR misses
system.cpu.icache.overall_accesses::.switch_cpus.inst      8741469                       # number of overall (read+write) accesses
system.cpu.icache.overall_accesses::total      8741469                       # number of overall (read+write) accesses
system.cpu.icache.overall_avg_miss_latency::.switch_cpus.inst 38851.313454                       # average overall miss latency
system.cpu.icache.overall_avg_miss_latency::total 38851.313454                       # average overall miss latency
system.cpu.icache.overall_avg_mshr_miss_latency::.switch_cpus.inst 38359.775641                       # average overall mshr miss latency
system.cpu.icache.overall_avg_mshr_miss_latency::total 38359.775641                       # average overall mshr miss latency
system.cpu.icache.overall_hits::.switch_cpus.inst      8727384                       # number of overall hits
system.cpu.icache.overall_hits::total         8727384                       # number of overall hits
system.cpu.icache.overall_miss_latency::.switch_cpus.inst    547220750                       # number of overall miss cycles
system.cpu.icache.overall_miss_latency::total    547220750                       # number of overall miss cycles
system.cpu.icache.overall_miss_rate::.switch_cpus.inst     0.001611                       # miss rate for overall accesses
system.cpu.icache.overall_miss_rate::total     0.001611                       # miss rate for overall accesses
system.cpu.icache.overall_misses::.switch_cpus.inst        14085                       # number of overall misses
system.cpu.icache.overall_misses::total         14085                       # number of overall misses
system.cpu.icache.overall_mshr_hits::.switch_cpus.inst         2853                       # number of overall MSHR hits
system.cpu.icache.overall_mshr_hits::total         2853                       # number of overall MSHR hits
system.cpu.icache.overall_mshr_miss_latency::.switch_cpus.inst    430857000                       # number of overall MSHR miss cycles
system.cpu.icache.overall_mshr_miss_latency::total    430857000                       # number of overall MSHR miss cycles
system.cpu.icache.overall_mshr_miss_rate::.switch_cpus.inst     0.001285                       # mshr miss rate for overall accesses
system.cpu.icache.overall_mshr_miss_rate::total     0.001285                       # mshr miss rate for overall accesses
system.cpu.icache.overall_mshr_misses::.switch_cpus.inst        11232                       # number of overall MSHR misses
system.cpu.icache.overall_mshr_misses::total        11232                       # number of overall MSHR misses
system.cpu.icache.replacements                  10720                       # number of replacements
system.cpu.icache.tags.age_task_id_blocks_1025::1           16                       # Occupied blocks per task id
system.cpu.icache.tags.age_task_id_blocks_1025::3          146                       # Occupied blocks per task id
system.cpu.icache.tags.age_task_id_blocks_1025::4          350                       # Occupied blocks per task id
system.cpu.icache.tags.avg_refs            219.405784                       # Average number of references to valid blocks.
system.cpu.icache.tags.data_accesses         34977108                       # Number of data accesses
system.cpu.icache.tags.occ_blocks::.switch_cpus.inst   484.902088                       # Average occupied blocks per requestor
system.cpu.icache.tags.occ_percent::.switch_cpus.inst     0.947074                       # Average percentage of cache occupancy
system.cpu.icache.tags.occ_percent::total     0.947074                       # Average percentage of cache occupancy
system.cpu.icache.tags.occ_task_id_blocks::1025          512                       # Occupied blocks per task id
system.cpu.icache.tags.occ_task_id_percent::1025            1                       # Percentage of cache occupancy per task id
system.cpu.icache.tags.sampled_refs             10720                       # Sample count of references to valid blocks.
system.cpu.icache.tags.tag_accesses          34977108                       # Number of tag accesses
system.cpu.icache.tags.tagsinuse           484.902088                       # Cycle average of tags in use
system.cpu.icache.tags.total_refs             2352030                       # Total number of references to valid blocks.
system.cpu.icache.tags.warmup_cycle      807268655642000                       # Cycle when the warmup percentage was hit.
system.cpu.icache.tlbTagged.rdAccesses              0                       # TLB accesses on read requests
system.cpu.icache.tlbTagged.rdMisses                0                       # TLB misses on read requests
system.cpu.icache.tlbTagged.wrAccesses              0                       # TLB accesses on write requests
system.cpu.icache.tlbTagged.wrMisses                0                       # TLB misses on write requests
system.cpu.icache.writebacks::.writebacks        10720                       # number of writebacks
system.cpu.icache.writebacks::total             10720                       # number of writebacks
system.cpu.itb.rdAccesses                           0                       # TLB accesses on read requests
system.cpu.itb.rdMisses                             0                       # TLB misses on read requests
system.cpu.itb.wrAccesses                           0                       # TLB accesses on write requests
system.cpu.itb.wrMisses                             0                       # TLB misses on write requests
system.cpu.itb_walker_cache.DataMeta::0             0                       # Distribution of access
system.cpu.itb_walker_cache.DataMeta::1             0                       # Distribution of access
system.cpu.itb_walker_cache.DataMeta::2             0                       # Distribution of access
system.cpu.itb_walker_cache.DataMeta::3             0                       # Distribution of access
system.cpu.itb_walker_cache.ReadReq_accesses::.switch_cpus.itb.walker          336                       # number of ReadReq accesses(hits+misses)
system.cpu.itb_walker_cache.ReadReq_accesses::total          336                       # number of ReadReq accesses(hits+misses)
system.cpu.itb_walker_cache.ReadReq_avg_miss_latency::.switch_cpus.itb.walker 52873.376623                       # average ReadReq miss latency
system.cpu.itb_walker_cache.ReadReq_avg_miss_latency::total 52873.376623                       # average ReadReq miss latency
system.cpu.itb_walker_cache.ReadReq_avg_mshr_miss_latency::.switch_cpus.itb.walker 52373.376623                       # average ReadReq mshr miss latency
system.cpu.itb_walker_cache.ReadReq_avg_mshr_miss_latency::total 52373.376623                       # average ReadReq mshr miss latency
system.cpu.itb_walker_cache.ReadReq_hits::.switch_cpus.itb.walker          259                       # number of ReadReq hits
system.cpu.itb_walker_cache.ReadReq_hits::total          259                       # number of ReadReq hits
system.cpu.itb_walker_cache.ReadReq_miss_latency::.switch_cpus.itb.walker      4071250                       # number of ReadReq miss cycles
system.cpu.itb_walker_cache.ReadReq_miss_latency::total      4071250                       # number of ReadReq miss cycles
system.cpu.itb_walker_cache.ReadReq_miss_rate::.switch_cpus.itb.walker     0.229167                       # miss rate for ReadReq accesses
system.cpu.itb_walker_cache.ReadReq_miss_rate::total     0.229167                       # miss rate for ReadReq accesses
system.cpu.itb_walker_cache.ReadReq_misses::.switch_cpus.itb.walker           77                       # number of ReadReq misses
system.cpu.itb_walker_cache.ReadReq_misses::total           77                       # number of ReadReq misses
system.cpu.itb_walker_cache.ReadReq_mshr_miss_latency::.switch_cpus.itb.walker      4032750                       # number of ReadReq MSHR miss cycles
system.cpu.itb_walker_cache.ReadReq_mshr_miss_latency::total      4032750                       # number of ReadReq MSHR miss cycles
system.cpu.itb_walker_cache.ReadReq_mshr_miss_rate::.switch_cpus.itb.walker     0.229167                       # mshr miss rate for ReadReq accesses
system.cpu.itb_walker_cache.ReadReq_mshr_miss_rate::total     0.229167                       # mshr miss rate for ReadReq accesses
system.cpu.itb_walker_cache.ReadReq_mshr_misses::.switch_cpus.itb.walker           77                       # number of ReadReq MSHR misses
system.cpu.itb_walker_cache.ReadReq_mshr_misses::total           77                       # number of ReadReq MSHR misses
system.cpu.itb_walker_cache.avg_blocked_cycles::no_mshrs          nan                       # average number of cycles each access was blocked
system.cpu.itb_walker_cache.avg_blocked_cycles::no_targets          nan                       # average number of cycles each access was blocked
system.cpu.itb_walker_cache.blocked::no_mshrs            0                       # number of cycles access was blocked
system.cpu.itb_walker_cache.blocked::no_targets            0                       # number of cycles access was blocked
system.cpu.itb_walker_cache.blocked_cycles::no_mshrs            0                       # number of cycles access was blocked
system.cpu.itb_walker_cache.blocked_cycles::no_targets            0                       # number of cycles access was blocked
system.cpu.itb_walker_cache.demand_accesses::.switch_cpus.itb.walker          336                       # number of demand (read+write) accesses
system.cpu.itb_walker_cache.demand_accesses::total          336                       # number of demand (read+write) accesses
system.cpu.itb_walker_cache.demand_avg_miss_latency::.switch_cpus.itb.walker 52873.376623                       # average overall miss latency
system.cpu.itb_walker_cache.demand_avg_miss_latency::total 52873.376623                       # average overall miss latency
system.cpu.itb_walker_cache.demand_avg_mshr_miss_latency::.switch_cpus.itb.walker 52373.376623                       # average overall mshr miss latency
system.cpu.itb_walker_cache.demand_avg_mshr_miss_latency::total 52373.376623                       # average overall mshr miss latency
system.cpu.itb_walker_cache.demand_hits::.switch_cpus.itb.walker          259                       # number of demand (read+write) hits
system.cpu.itb_walker_cache.demand_hits::total          259                       # number of demand (read+write) hits
system.cpu.itb_walker_cache.demand_miss_latency::.switch_cpus.itb.walker      4071250                       # number of demand (read+write) miss cycles
system.cpu.itb_walker_cache.demand_miss_latency::total      4071250                       # number of demand (read+write) miss cycles
system.cpu.itb_walker_cache.demand_miss_rate::.switch_cpus.itb.walker     0.229167                       # miss rate for demand accesses
system.cpu.itb_walker_cache.demand_miss_rate::total     0.229167                       # miss rate for demand accesses
system.cpu.itb_walker_cache.demand_misses::.switch_cpus.itb.walker           77                       # number of demand (read+write) misses
system.cpu.itb_walker_cache.demand_misses::total           77                       # number of demand (read+write) misses
system.cpu.itb_walker_cache.demand_mshr_miss_latency::.switch_cpus.itb.walker      4032750                       # number of demand (read+write) MSHR miss cycles
system.cpu.itb_walker_cache.demand_mshr_miss_latency::total      4032750                       # number of demand (read+write) MSHR miss cycles
system.cpu.itb_walker_cache.demand_mshr_miss_rate::.switch_cpus.itb.walker     0.229167                       # mshr miss rate for demand accesses
system.cpu.itb_walker_cache.demand_mshr_miss_rate::total     0.229167                       # mshr miss rate for demand accesses
system.cpu.itb_walker_cache.demand_mshr_misses::.switch_cpus.itb.walker           77                       # number of demand (read+write) MSHR misses
system.cpu.itb_walker_cache.demand_mshr_misses::total           77                       # number of demand (read+write) MSHR misses
system.cpu.itb_walker_cache.overall_accesses::.switch_cpus.itb.walker          336                       # number of overall (read+write) accesses
system.cpu.itb_walker_cache.overall_accesses::total          336                       # number of overall (read+write) accesses
system.cpu.itb_walker_cache.overall_avg_miss_latency::.switch_cpus.itb.walker 52873.376623                       # average overall miss latency
system.cpu.itb_walker_cache.overall_avg_miss_latency::total 52873.376623                       # average overall miss latency
system.cpu.itb_walker_cache.overall_avg_mshr_miss_latency::.switch_cpus.itb.walker 52373.376623                       # average overall mshr miss latency
system.cpu.itb_walker_cache.overall_avg_mshr_miss_latency::total 52373.376623                       # average overall mshr miss latency
system.cpu.itb_walker_cache.overall_hits::.switch_cpus.itb.walker          259                       # number of overall hits
system.cpu.itb_walker_cache.overall_hits::total          259                       # number of overall hits
system.cpu.itb_walker_cache.overall_miss_latency::.switch_cpus.itb.walker      4071250                       # number of overall miss cycles
system.cpu.itb_walker_cache.overall_miss_latency::total      4071250                       # number of overall miss cycles
system.cpu.itb_walker_cache.overall_miss_rate::.switch_cpus.itb.walker     0.229167                       # miss rate for overall accesses
system.cpu.itb_walker_cache.overall_miss_rate::total     0.229167                       # miss rate for overall accesses
system.cpu.itb_walker_cache.overall_misses::.switch_cpus.itb.walker           77                       # number of overall misses
system.cpu.itb_walker_cache.overall_misses::total           77                       # number of overall misses
system.cpu.itb_walker_cache.overall_mshr_miss_latency::.switch_cpus.itb.walker      4032750                       # number of overall MSHR miss cycles
system.cpu.itb_walker_cache.overall_mshr_miss_latency::total      4032750                       # number of overall MSHR miss cycles
system.cpu.itb_walker_cache.overall_mshr_miss_rate::.switch_cpus.itb.walker     0.229167                       # mshr miss rate for overall accesses
system.cpu.itb_walker_cache.overall_mshr_miss_rate::total     0.229167                       # mshr miss rate for overall accesses
system.cpu.itb_walker_cache.overall_mshr_misses::.switch_cpus.itb.walker           77                       # number of overall MSHR misses
system.cpu.itb_walker_cache.overall_mshr_misses::total           77                       # number of overall MSHR misses
system.cpu.itb_walker_cache.replacements           61                       # number of replacements
system.cpu.itb_walker_cache.tags.age_task_id_blocks_1025::4           16                       # Occupied blocks per task id
system.cpu.itb_walker_cache.tags.avg_refs     4.786885                       # Average number of references to valid blocks.
system.cpu.itb_walker_cache.tags.data_accesses          749                       # Number of data accesses
system.cpu.itb_walker_cache.tags.occ_blocks::.switch_cpus.itb.walker    13.659451                       # Average occupied blocks per requestor
system.cpu.itb_walker_cache.tags.occ_percent::.switch_cpus.itb.walker     0.853716                       # Average percentage of cache occupancy
system.cpu.itb_walker_cache.tags.occ_percent::total     0.853716                       # Average percentage of cache occupancy
system.cpu.itb_walker_cache.tags.occ_task_id_blocks::1025           16                       # Occupied blocks per task id
system.cpu.itb_walker_cache.tags.occ_task_id_percent::1025            1                       # Percentage of cache occupancy per task id
system.cpu.itb_walker_cache.tags.sampled_refs           61                       # Sample count of references to valid blocks.
system.cpu.itb_walker_cache.tags.tag_accesses          749                       # Number of tag accesses
system.cpu.itb_walker_cache.tags.tagsinuse    13.659451                       # Cycle average of tags in use
system.cpu.itb_walker_cache.tags.total_refs          292                       # Total number of references to valid blocks.
system.cpu.itb_walker_cache.tags.warmup_cycle 807268655317000                       # Cycle when the warmup percentage was hit.
system.cpu.itb_walker_cache.tlbTagged.rdAccesses            0                       # TLB accesses on read requests
system.cpu.itb_walker_cache.tlbTagged.rdMisses            0                       # TLB misses on read requests
system.cpu.itb_walker_cache.tlbTagged.wrAccesses            0                       # TLB accesses on write requests
system.cpu.itb_walker_cache.tlbTagged.wrMisses            0                       # TLB misses on write requests
system.cpu.kern.inst.arm                            0                       # number of arm instructions executed
system.cpu.kern.inst.quiesce                        0                       # number of quiesce instructions executed
system.cpu.l2cache.CleanEvict_mshr_miss_rate::.writebacks          inf                       # mshr miss rate for CleanEvict accesses
system.cpu.l2cache.CleanEvict_mshr_miss_rate::total          inf                       # mshr miss rate for CleanEvict accesses
system.cpu.l2cache.CleanEvict_mshr_misses::.writebacks         1162                       # number of CleanEvict MSHR misses
system.cpu.l2cache.CleanEvict_mshr_misses::total         1162                       # number of CleanEvict MSHR misses
system.cpu.l2cache.DataMeta::0                      0                       # Distribution of access
system.cpu.l2cache.DataMeta::1                      0                       # Distribution of access
system.cpu.l2cache.DataMeta::2                      0                       # Distribution of access
system.cpu.l2cache.DataMeta::3                      0                       # Distribution of access
system.cpu.l2cache.HardPFReq_avg_mshr_miss_latency::.cpu.l2cache.prefetcher 104271.958026                       # average HardPFReq mshr miss latency
system.cpu.l2cache.HardPFReq_avg_mshr_miss_latency::total 104271.958026                       # average HardPFReq mshr miss latency
system.cpu.l2cache.HardPFReq_mshr_miss_latency::.cpu.l2cache.prefetcher 316655480388                       # number of HardPFReq MSHR miss cycles
system.cpu.l2cache.HardPFReq_mshr_miss_latency::total 316655480388                       # number of HardPFReq MSHR miss cycles
system.cpu.l2cache.HardPFReq_mshr_miss_rate::.cpu.l2cache.prefetcher          inf                       # mshr miss rate for HardPFReq accesses
system.cpu.l2cache.HardPFReq_mshr_miss_rate::total          inf                       # mshr miss rate for HardPFReq accesses
system.cpu.l2cache.HardPFReq_mshr_misses::.cpu.l2cache.prefetcher      3036823                       # number of HardPFReq MSHR misses
system.cpu.l2cache.HardPFReq_mshr_misses::total      3036823                       # number of HardPFReq MSHR misses
system.cpu.l2cache.ReadCleanReq_accesses::.switch_cpus.inst        11232                       # number of ReadCleanReq accesses(hits+misses)
system.cpu.l2cache.ReadCleanReq_accesses::total        11232                       # number of ReadCleanReq accesses(hits+misses)
system.cpu.l2cache.ReadCleanReq_avg_miss_latency::.switch_cpus.inst 83739.895554                       # average ReadCleanReq miss latency
system.cpu.l2cache.ReadCleanReq_avg_miss_latency::total 83739.895554                       # average ReadCleanReq miss latency
system.cpu.l2cache.ReadCleanReq_avg_mshr_miss_latency::.switch_cpus.inst 84944.602990                       # average ReadCleanReq mshr miss latency
system.cpu.l2cache.ReadCleanReq_avg_mshr_miss_latency::total 84944.602990                       # average ReadCleanReq mshr miss latency
system.cpu.l2cache.ReadCleanReq_hits::.switch_cpus.inst         6531                       # number of ReadCleanReq hits
system.cpu.l2cache.ReadCleanReq_hits::total         6531                       # number of ReadCleanReq hits
system.cpu.l2cache.ReadCleanReq_miss_latency::.switch_cpus.inst    393661249                       # number of ReadCleanReq miss cycles
system.cpu.l2cache.ReadCleanReq_miss_latency::total    393661249                       # number of ReadCleanReq miss cycles
system.cpu.l2cache.ReadCleanReq_miss_rate::.switch_cpus.inst     0.418536                       # miss rate for ReadCleanReq accesses
system.cpu.l2cache.ReadCleanReq_miss_rate::total     0.418536                       # miss rate for ReadCleanReq accesses
system.cpu.l2cache.ReadCleanReq_misses::.switch_cpus.inst         4701                       # number of ReadCleanReq misses
system.cpu.l2cache.ReadCleanReq_misses::total         4701                       # number of ReadCleanReq misses
system.cpu.l2cache.ReadCleanReq_mshr_hits::.switch_cpus.inst          152                       # number of ReadCleanReq MSHR hits
system.cpu.l2cache.ReadCleanReq_mshr_hits::total          152                       # number of ReadCleanReq MSHR hits
system.cpu.l2cache.ReadCleanReq_mshr_miss_latency::.switch_cpus.inst    386412999                       # number of ReadCleanReq MSHR miss cycles
system.cpu.l2cache.ReadCleanReq_mshr_miss_latency::total    386412999                       # number of ReadCleanReq MSHR miss cycles
system.cpu.l2cache.ReadCleanReq_mshr_miss_rate::.switch_cpus.inst     0.405004                       # mshr miss rate for ReadCleanReq accesses
system.cpu.l2cache.ReadCleanReq_mshr_miss_rate::total     0.405004                       # mshr miss rate for ReadCleanReq accesses
system.cpu.l2cache.ReadCleanReq_mshr_misses::.switch_cpus.inst         4549                       # number of ReadCleanReq MSHR misses
system.cpu.l2cache.ReadCleanReq_mshr_misses::total         4549                       # number of ReadCleanReq MSHR misses
system.cpu.l2cache.ReadExReq_accesses::.switch_cpus.data       766918                       # number of ReadExReq accesses(hits+misses)
system.cpu.l2cache.ReadExReq_accesses::total       766918                       # number of ReadExReq accesses(hits+misses)
system.cpu.l2cache.ReadExReq_avg_miss_latency::.switch_cpus.data 88782.410165                       # average ReadExReq miss latency
system.cpu.l2cache.ReadExReq_avg_miss_latency::total 88782.410165                       # average ReadExReq miss latency
system.cpu.l2cache.ReadExReq_avg_mshr_miss_latency::.switch_cpus.data 108548.208104                       # average ReadExReq mshr miss latency
system.cpu.l2cache.ReadExReq_avg_mshr_miss_latency::total 108548.208104                       # average ReadExReq mshr miss latency
system.cpu.l2cache.ReadExReq_hits::.switch_cpus.data       691363                       # number of ReadExReq hits
system.cpu.l2cache.ReadExReq_hits::total       691363                       # number of ReadExReq hits
system.cpu.l2cache.ReadExReq_miss_latency::.switch_cpus.data   6707955000                       # number of ReadExReq miss cycles
system.cpu.l2cache.ReadExReq_miss_latency::total   6707955000                       # number of ReadExReq miss cycles
system.cpu.l2cache.ReadExReq_miss_rate::.switch_cpus.data     0.098518                       # miss rate for ReadExReq accesses
system.cpu.l2cache.ReadExReq_miss_rate::total     0.098518                       # miss rate for ReadExReq accesses
system.cpu.l2cache.ReadExReq_misses::.switch_cpus.data        75555                       # number of ReadExReq misses
system.cpu.l2cache.ReadExReq_misses::total        75555                       # number of ReadExReq misses
system.cpu.l2cache.ReadExReq_mshr_hits::.switch_cpus.data        21534                       # number of ReadExReq MSHR hits
system.cpu.l2cache.ReadExReq_mshr_hits::total        21534                       # number of ReadExReq MSHR hits
system.cpu.l2cache.ReadExReq_mshr_miss_latency::.switch_cpus.data   5863882750                       # number of ReadExReq MSHR miss cycles
system.cpu.l2cache.ReadExReq_mshr_miss_latency::total   5863882750                       # number of ReadExReq MSHR miss cycles
system.cpu.l2cache.ReadExReq_mshr_miss_rate::.switch_cpus.data     0.070439                       # mshr miss rate for ReadExReq accesses
system.cpu.l2cache.ReadExReq_mshr_miss_rate::total     0.070439                       # mshr miss rate for ReadExReq accesses
system.cpu.l2cache.ReadExReq_mshr_misses::.switch_cpus.data        54021                       # number of ReadExReq MSHR misses
system.cpu.l2cache.ReadExReq_mshr_misses::total        54021                       # number of ReadExReq MSHR misses
system.cpu.l2cache.ReadSharedReq_accesses::.cpu.dcache.prefetcher      3109387                       # number of ReadSharedReq accesses(hits+misses)
system.cpu.l2cache.ReadSharedReq_accesses::.switch_cpus.dtb.walker         4447                       # number of ReadSharedReq accesses(hits+misses)
system.cpu.l2cache.ReadSharedReq_accesses::.switch_cpus.itb.walker           77                       # number of ReadSharedReq accesses(hits+misses)
system.cpu.l2cache.ReadSharedReq_accesses::.switch_cpus.data       174118                       # number of ReadSharedReq accesses(hits+misses)
system.cpu.l2cache.ReadSharedReq_accesses::total      3288029                       # number of ReadSharedReq accesses(hits+misses)
system.cpu.l2cache.ReadSharedReq_avg_miss_latency::.cpu.dcache.prefetcher 90403.297703                       # average ReadSharedReq miss latency
system.cpu.l2cache.ReadSharedReq_avg_miss_latency::.switch_cpus.dtb.walker 70259.124088                       # average ReadSharedReq miss latency
system.cpu.l2cache.ReadSharedReq_avg_miss_latency::.switch_cpus.itb.walker 91505.952381                       # average ReadSharedReq miss latency
system.cpu.l2cache.ReadSharedReq_avg_miss_latency::.switch_cpus.data 56134.566543                       # average ReadSharedReq miss latency
system.cpu.l2cache.ReadSharedReq_avg_miss_latency::total 89498.512474                       # average ReadSharedReq miss latency
system.cpu.l2cache.ReadSharedReq_avg_mshr_miss_latency::.cpu.dcache.prefetcher 109239.848675                       # average ReadSharedReq mshr miss latency
system.cpu.l2cache.ReadSharedReq_avg_mshr_miss_latency::.switch_cpus.dtb.walker 70259.124088                       # average ReadSharedReq mshr miss latency
system.cpu.l2cache.ReadSharedReq_avg_mshr_miss_latency::.switch_cpus.itb.walker 91505.952381                       # average ReadSharedReq mshr miss latency
system.cpu.l2cache.ReadSharedReq_avg_mshr_miss_latency::.switch_cpus.data 105930.337799                       # average ReadSharedReq mshr miss latency
system.cpu.l2cache.ReadSharedReq_avg_mshr_miss_latency::total 109113.603185                       # average ReadSharedReq mshr miss latency
system.cpu.l2cache.ReadSharedReq_hits::.cpu.dcache.prefetcher       765263                       # number of ReadSharedReq hits
system.cpu.l2cache.ReadSharedReq_hits::.switch_cpus.dtb.walker         3488                       # number of ReadSharedReq hits
system.cpu.l2cache.ReadSharedReq_hits::.switch_cpus.itb.walker           35                       # number of ReadSharedReq hits
system.cpu.l2cache.ReadSharedReq_hits::.switch_cpus.data       111099                       # number of ReadSharedReq hits
system.cpu.l2cache.ReadSharedReq_hits::total       879885                       # number of ReadSharedReq hits
system.cpu.l2cache.ReadSharedReq_miss_latency::.cpu.dcache.prefetcher 211916539825                       # number of ReadSharedReq miss cycles
system.cpu.l2cache.ReadSharedReq_miss_latency::.switch_cpus.dtb.walker     67378500                       # number of ReadSharedReq miss cycles
system.cpu.l2cache.ReadSharedReq_miss_latency::.switch_cpus.itb.walker      3843250                       # number of ReadSharedReq miss cycles
system.cpu.l2cache.ReadSharedReq_miss_latency::.switch_cpus.data   3537544249                       # number of ReadSharedReq miss cycles
system.cpu.l2cache.ReadSharedReq_miss_latency::total 215525305824                       # number of ReadSharedReq miss cycles
system.cpu.l2cache.ReadSharedReq_miss_rate::.cpu.dcache.prefetcher     0.753886                       # miss rate for ReadSharedReq accesses
system.cpu.l2cache.ReadSharedReq_miss_rate::.switch_cpus.dtb.walker     0.215651                       # miss rate for ReadSharedReq accesses
system.cpu.l2cache.ReadSharedReq_miss_rate::.switch_cpus.itb.walker     0.545455                       # miss rate for ReadSharedReq accesses
system.cpu.l2cache.ReadSharedReq_miss_rate::.switch_cpus.data     0.361933                       # miss rate for ReadSharedReq accesses
system.cpu.l2cache.ReadSharedReq_miss_rate::total     0.732397                       # miss rate for ReadSharedReq accesses
system.cpu.l2cache.ReadSharedReq_misses::.cpu.dcache.prefetcher      2344124                       # number of ReadSharedReq misses
system.cpu.l2cache.ReadSharedReq_misses::.switch_cpus.dtb.walker          959                       # number of ReadSharedReq misses
system.cpu.l2cache.ReadSharedReq_misses::.switch_cpus.itb.walker           42                       # number of ReadSharedReq misses
system.cpu.l2cache.ReadSharedReq_misses::.switch_cpus.data        63019                       # number of ReadSharedReq misses
system.cpu.l2cache.ReadSharedReq_misses::total      2408144                       # number of ReadSharedReq misses
system.cpu.l2cache.ReadSharedReq_mshr_hits::.cpu.dcache.prefetcher      1390050                       # number of ReadSharedReq MSHR hits
system.cpu.l2cache.ReadSharedReq_mshr_hits::.switch_cpus.data        37119                       # number of ReadSharedReq MSHR hits
system.cpu.l2cache.ReadSharedReq_mshr_hits::total      1427169                       # number of ReadSharedReq MSHR hits
system.cpu.l2cache.ReadSharedReq_mshr_miss_latency::.cpu.dcache.prefetcher 104222899385                       # number of ReadSharedReq MSHR miss cycles
system.cpu.l2cache.ReadSharedReq_mshr_miss_latency::.switch_cpus.dtb.walker     67378500                       # number of ReadSharedReq MSHR miss cycles
system.cpu.l2cache.ReadSharedReq_mshr_miss_latency::.switch_cpus.itb.walker      3843250                       # number of ReadSharedReq MSHR miss cycles
system.cpu.l2cache.ReadSharedReq_mshr_miss_latency::.switch_cpus.data   2743595749                       # number of ReadSharedReq MSHR miss cycles
system.cpu.l2cache.ReadSharedReq_mshr_miss_latency::total 107037716884                       # number of ReadSharedReq MSHR miss cycles
system.cpu.l2cache.ReadSharedReq_mshr_miss_rate::.cpu.dcache.prefetcher     0.306837                       # mshr miss rate for ReadSharedReq accesses
system.cpu.l2cache.ReadSharedReq_mshr_miss_rate::.switch_cpus.dtb.walker     0.215651                       # mshr miss rate for ReadSharedReq accesses
system.cpu.l2cache.ReadSharedReq_mshr_miss_rate::.switch_cpus.itb.walker     0.545455                       # mshr miss rate for ReadSharedReq accesses
system.cpu.l2cache.ReadSharedReq_mshr_miss_rate::.switch_cpus.data     0.148750                       # mshr miss rate for ReadSharedReq accesses
system.cpu.l2cache.ReadSharedReq_mshr_miss_rate::total     0.298347                       # mshr miss rate for ReadSharedReq accesses
system.cpu.l2cache.ReadSharedReq_mshr_misses::.cpu.dcache.prefetcher       954074                       # number of ReadSharedReq MSHR misses
system.cpu.l2cache.ReadSharedReq_mshr_misses::.switch_cpus.dtb.walker          959                       # number of ReadSharedReq MSHR misses
system.cpu.l2cache.ReadSharedReq_mshr_misses::.switch_cpus.itb.walker           42                       # number of ReadSharedReq MSHR misses
system.cpu.l2cache.ReadSharedReq_mshr_misses::.switch_cpus.data        25900                       # number of ReadSharedReq MSHR misses
system.cpu.l2cache.ReadSharedReq_mshr_misses::total       980975                       # number of ReadSharedReq MSHR misses
system.cpu.l2cache.UpgradeReq_accesses::.switch_cpus.data         2794                       # number of UpgradeReq accesses(hits+misses)
system.cpu.l2cache.UpgradeReq_accesses::total         2794                       # number of UpgradeReq accesses(hits+misses)
system.cpu.l2cache.UpgradeReq_avg_miss_latency::.switch_cpus.data 13754.310345                       # average UpgradeReq miss latency
system.cpu.l2cache.UpgradeReq_avg_miss_latency::total 13754.310345                       # average UpgradeReq miss latency
system.cpu.l2cache.UpgradeReq_avg_mshr_miss_latency::.switch_cpus.data 16206.896552                       # average UpgradeReq mshr miss latency
system.cpu.l2cache.UpgradeReq_avg_mshr_miss_latency::total 16206.896552                       # average UpgradeReq mshr miss latency
system.cpu.l2cache.UpgradeReq_hits::.switch_cpus.data         2736                       # number of UpgradeReq hits
system.cpu.l2cache.UpgradeReq_hits::total         2736                       # number of UpgradeReq hits
system.cpu.l2cache.UpgradeReq_miss_latency::.switch_cpus.data       797750                       # number of UpgradeReq miss cycles
system.cpu.l2cache.UpgradeReq_miss_latency::total       797750                       # number of UpgradeReq miss cycles
system.cpu.l2cache.UpgradeReq_miss_rate::.switch_cpus.data     0.020759                       # miss rate for UpgradeReq accesses
system.cpu.l2cache.UpgradeReq_miss_rate::total     0.020759                       # miss rate for UpgradeReq accesses
system.cpu.l2cache.UpgradeReq_misses::.switch_cpus.data           58                       # number of UpgradeReq misses
system.cpu.l2cache.UpgradeReq_misses::total           58                       # number of UpgradeReq misses
system.cpu.l2cache.UpgradeReq_mshr_miss_latency::.switch_cpus.data       940000                       # number of UpgradeReq MSHR miss cycles
system.cpu.l2cache.UpgradeReq_mshr_miss_latency::total       940000                       # number of UpgradeReq MSHR miss cycles
system.cpu.l2cache.UpgradeReq_mshr_miss_rate::.switch_cpus.data     0.020759                       # mshr miss rate for UpgradeReq accesses
system.cpu.l2cache.UpgradeReq_mshr_miss_rate::total     0.020759                       # mshr miss rate for UpgradeReq accesses
system.cpu.l2cache.UpgradeReq_mshr_misses::.switch_cpus.data           58                       # number of UpgradeReq MSHR misses
system.cpu.l2cache.UpgradeReq_mshr_misses::total           58                       # number of UpgradeReq MSHR misses
system.cpu.l2cache.WriteReq_mshr_uncacheable::.switch_cpus.data           92                       # number of WriteReq MSHR uncacheable
system.cpu.l2cache.WriteReq_mshr_uncacheable::total           92                       # number of WriteReq MSHR uncacheable
system.cpu.l2cache.WritebackClean_accesses::.writebacks        10720                       # number of WritebackClean accesses(hits+misses)
system.cpu.l2cache.WritebackClean_accesses::total        10720                       # number of WritebackClean accesses(hits+misses)
system.cpu.l2cache.WritebackClean_hits::.writebacks        10720                       # number of WritebackClean hits
system.cpu.l2cache.WritebackClean_hits::total        10720                       # number of WritebackClean hits
system.cpu.l2cache.WritebackDirty_accesses::.writebacks      3220554                       # number of WritebackDirty accesses(hits+misses)
system.cpu.l2cache.WritebackDirty_accesses::total      3220554                       # number of WritebackDirty accesses(hits+misses)
system.cpu.l2cache.WritebackDirty_hits::.writebacks      3220554                       # number of WritebackDirty hits
system.cpu.l2cache.WritebackDirty_hits::total      3220554                       # number of WritebackDirty hits
system.cpu.l2cache.avg_blocked_cycles::no_mshrs    56.428571                       # average number of cycles each access was blocked
system.cpu.l2cache.avg_blocked_cycles::no_targets          nan                       # average number of cycles each access was blocked
system.cpu.l2cache.blocked::no_mshrs               14                       # number of cycles access was blocked
system.cpu.l2cache.blocked::no_targets              0                       # number of cycles access was blocked
system.cpu.l2cache.blocked_cycles::no_mshrs          790                       # number of cycles access was blocked
system.cpu.l2cache.blocked_cycles::no_targets            0                       # number of cycles access was blocked
system.cpu.l2cache.demand_accesses::.cpu.dcache.prefetcher      3109387                       # number of demand (read+write) accesses
system.cpu.l2cache.demand_accesses::.switch_cpus.dtb.walker         4447                       # number of demand (read+write) accesses
system.cpu.l2cache.demand_accesses::.switch_cpus.itb.walker           77                       # number of demand (read+write) accesses
system.cpu.l2cache.demand_accesses::.switch_cpus.inst        11232                       # number of demand (read+write) accesses
system.cpu.l2cache.demand_accesses::.switch_cpus.data       941036                       # number of demand (read+write) accesses
system.cpu.l2cache.demand_accesses::total      4066179                       # number of demand (read+write) accesses
system.cpu.l2cache.demand_avg_miss_latency::.cpu.dcache.prefetcher 90403.297703                       # average overall miss latency
system.cpu.l2cache.demand_avg_miss_latency::.switch_cpus.dtb.walker 70259.124088                       # average overall miss latency
system.cpu.l2cache.demand_avg_miss_latency::.switch_cpus.itb.walker 91505.952381                       # average overall miss latency
system.cpu.l2cache.demand_avg_miss_latency::.switch_cpus.inst 83739.895554                       # average overall miss latency
system.cpu.l2cache.demand_avg_miss_latency::.switch_cpus.data 73935.220525                       # average overall miss latency
system.cpu.l2cache.demand_avg_miss_latency::total 89465.890561                       # average overall miss latency
system.cpu.l2cache.demand_avg_mshr_miss_latency::.cpu.dcache.prefetcher 109239.848675                       # average overall mshr miss latency
system.cpu.l2cache.demand_avg_mshr_miss_latency::.switch_cpus.dtb.walker 70259.124088                       # average overall mshr miss latency
system.cpu.l2cache.demand_avg_mshr_miss_latency::.switch_cpus.itb.walker 91505.952381                       # average overall mshr miss latency
system.cpu.l2cache.demand_avg_mshr_miss_latency::.switch_cpus.inst 84944.602990                       # average overall mshr miss latency
system.cpu.l2cache.demand_avg_mshr_miss_latency::.switch_cpus.data 107699.834824                       # average overall mshr miss latency
system.cpu.l2cache.demand_avg_mshr_miss_latency::total 108978.459454                       # average overall mshr miss latency
system.cpu.l2cache.demand_hits::.cpu.dcache.prefetcher       765263                       # number of demand (read+write) hits
system.cpu.l2cache.demand_hits::.switch_cpus.dtb.walker         3488                       # number of demand (read+write) hits
system.cpu.l2cache.demand_hits::.switch_cpus.itb.walker           35                       # number of demand (read+write) hits
system.cpu.l2cache.demand_hits::.switch_cpus.inst         6531                       # number of demand (read+write) hits
[...]
system.switch_cpus.iq.iqNonSpecInstsAdded           27                       # Number of non-speculative instructions added to the IQ
system.switch_cpus.iq.iqSquashedInstsExamined         5296                       # Number of squashed instructions iterated over during squash; mainly for profiling
system.switch_cpus.iq.iqSquashedInstsIssued           14                       # Number of squashed instructions issued
system.switch_cpus.iq.iqSquashedNonSpecRemoved           15                       # Number of squashed non-spec instructions that were removed
system.switch_cpus.iq.iqSquashedOperandsExamined         7045                       # Number of squashed operands that are examined and possibly removed from graph
system.switch_cpus.iq.issued_per_cycle::samples      3134595                       # Number of insts issued each cycle
system.switch_cpus.iq.issued_per_cycle::mean     0.997736                       # Number of insts issued each cycle
system.switch_cpus.iq.issued_per_cycle::stdev     1.504452                       # Number of insts issued each cycle
system.switch_cpus.iq.issued_per_cycle::underflows            0      0.00%      0.00% # Number of insts issued each cycle
system.switch_cpus.iq.issued_per_cycle::0      1928030     61.51%     61.51% # Number of insts issued each cycle
system.switch_cpus.iq.issued_per_cycle::1       356598     11.38%     72.88% # Number of insts issued each cycle
system.switch_cpus.iq.issued_per_cycle::2       183121      5.84%     78.73% # Number of insts issued each cycle
system.switch_cpus.iq.issued_per_cycle::3       386442     12.33%     91.05% # Number of insts issued each cycle
system.switch_cpus.iq.issued_per_cycle::4       180107      5.75%     96.80% # Number of insts issued each cycle
system.switch_cpus.iq.issued_per_cycle::5        77426      2.47%     99.27% # Number of insts issued each cycle
system.switch_cpus.iq.issued_per_cycle::6        22465      0.72%     99.99% # Number of insts issued each cycle
system.switch_cpus.iq.issued_per_cycle::7          264      0.01%    100.00% # Number of insts issued each cycle
system.switch_cpus.iq.issued_per_cycle::8          142      0.00%    100.00% # Number of insts issued each cycle
system.switch_cpus.iq.issued_per_cycle::overflows            0      0.00%    100.00% # Number of insts issued each cycle
system.switch_cpus.iq.issued_per_cycle::min_value            0                       # Number of insts issued each cycle
system.switch_cpus.iq.issued_per_cycle::max_value            8                       # Number of insts issued each cycle
system.switch_cpus.iq.issued_per_cycle::total      3134595                       # Number of insts issued each cycle
system.switch_cpus.iq.rate                   0.996555                       # Inst issue rate
system.switch_cpus.iq.vec_alu_accesses              0                       # Number of vector alu accesses
system.switch_cpus.iq.vec_inst_queue_reads            0                       # Number of vector instruction queue reads
system.switch_cpus.iq.vec_inst_queue_wakeup_accesses            0                       # Number of vector instruction queue wakeup accesses
system.switch_cpus.iq.vec_inst_queue_writes            0                       # Number of vector instruction queue writes
system.switch_cpus.itb.rdAccesses                   0                       # TLB accesses on read requests
system.switch_cpus.itb.rdMisses                     0                       # TLB misses on read requests
system.switch_cpus.itb.wrAccesses              164563                       # TLB accesses on write requests
system.switch_cpus.itb.wrMisses                     0                       # TLB misses on write requests
system.switch_cpus.kern.inst.arm                    0                       # number of arm instructions executed
system.switch_cpus.kern.inst.quiesce                0                       # number of quiesce instructions executed
system.switch_cpus.memDep0.conflictingLoads          138                       # Number of conflicting loads.
system.switch_cpus.memDep0.conflictingStores            1                       # Number of conflicting stores.
system.switch_cpus.memDep0.insertedLoads       325677                       # Number of loads inserted to the mem dependence unit.
system.switch_cpus.memDep0.insertedStores       542061                       # Number of stores inserted to the mem dependence unit.
system.switch_cpus.misc_regfile_reads         1640612                       # number of misc regfile reads
system.switch_cpus.misc_regfile_writes             17                       # number of misc regfile writes
system.switch_cpus.numCycles                  3138309                       # number of cpu cycles simulated
system.switch_cpus.numWorkItemsCompleted            0                       # number of work items this cpu completed
system.switch_cpus.numWorkItemsStarted              0                       # number of work items this cpu started
system.switch_cpus.rename.BlockCycles          389503                       # Number of cycles rename is blocking
system.switch_cpus.rename.CommittedMaps       3295864                       # Number of HB maps that are committed
system.switch_cpus.rename.IQFullEvents           3335                       # Number of times rename has blocked due to IQ full
system.switch_cpus.rename.IdleCycles           265143                       # Number of cycles rename is idle
system.switch_cpus.rename.ROBFullEvents            70                       # Number of times rename has blocked due to ROB full
system.switch_cpus.rename.RenameLookups       7915499                       # Number of register rename lookups that rename has made
system.switch_cpus.rename.RenamedInsts        3130639                       # Number of instructions processed by rename
system.switch_cpus.rename.RenamedOperands      3303365                       # Number of destination operands rename has renamed
system.switch_cpus.rename.RunCycles            261924                       # Number of cycles rename is running
system.switch_cpus.rename.SQFullEvents        2105148                       # Number of times rename has blocked due to SQ full
system.switch_cpus.rename.SquashCycles            289                       # Number of cycles rename is squashing
system.switch_cpus.rename.UnblockCycles       2214394                       # Number of cycles rename is unblocking
system.switch_cpus.rename.UndoneMaps             7520                       # Number of HB maps that are undone due to squashing
system.switch_cpus.rename.int_rename_lookups      4174602                       # Number of integer rename lookups
system.switch_cpus.rename.serializeStallCycles         3342                       # count of cycles rename stalled for serializing inst
system.switch_cpus.rename.serializingInsts           27                       # count of serializing insts renamed
system.switch_cpus.rename.skidInsts           2204276                       # count of insts added to the skid buffer
system.switch_cpus.rename.tempSerializingInsts           27                       # count of temporary serializing insts renamed
system.switch_cpus.rob.rob_reads              6261655                       # The number of ROB reads
system.switch_cpus.rob.rob_writes             6259082                       # The number of ROB writes
system.switch_cpus.timesIdled                      22                       # Number of times that the entire CPU went into an idle state and unscheduled itself
system.tol3bus.pkt_count_system.cpu.l2cache.mem_side::system.l3.cpu_side        84270                       # Packet count per connected master and slave (bytes)
system.tol3bus.pkt_size_system.cpu.l2cache.mem_side::system.l3.cpu_side      3559168                       # Cumulative packet size per connected master and slave (bytes)
system.tol3bus.reqLayer0.occupancy           27926575                       # Layer occupancy (ticks)
system.tol3bus.reqLayer0.utilization              3.6                       # Layer utilization (%)
system.tol3bus.respLayer0.occupancy          28042011                       # Layer occupancy (ticks)
system.tol3bus.respLayer0.utilization             3.6                       # Layer utilization (%)
system.tol3bus.snoopTraffic                   1787328                       # Total snoop traffic (bytes)
system.tol3bus.snoop_fanout::samples            56090                       # Request fanout histogram
system.tol3bus.snoop_fanout::mean            0.000036                       # Request fanout histogram
system.tol3bus.snoop_fanout::stdev           0.005971                       # Request fanout histogram
system.tol3bus.snoop_fanout::underflows             0      0.00%      0.00% # Request fanout histogram
system.tol3bus.snoop_fanout::0                  56088    100.00%    100.00% # Request fanout histogram
system.tol3bus.snoop_fanout::1                      2      0.00%    100.00% # Request fanout histogram
system.tol3bus.snoop_fanout::overflows              0      0.00%    100.00% # Request fanout histogram
system.tol3bus.snoop_fanout::min_value              0                       # Request fanout histogram
system.tol3bus.snoop_fanout::max_value              1                       # Request fanout histogram
system.tol3bus.snoop_fanout::total              56090                       # Request fanout histogram
system.tol3bus.snoop_filter.hit_multi_requests            0                       # Number of requests hitting in the snoop filter with multiple (>1) holders of the requested data.
system.tol3bus.snoop_filter.hit_multi_snoops            0                       # Number of snoops hitting in the snoop filter with multiple (>1) holders of the requested data.
system.tol3bus.snoop_filter.hit_single_requests        28077                       # Number of requests hitting in the snoop filter with a single holder of the requested data.
system.tol3bus.snoop_filter.hit_single_snoops            2                       # Number of snoops hitting in the snoop filter with a single holder of the requested data.
system.tol3bus.snoop_filter.tot_requests        56173                       # Total number of requests made to the snoop filter.
system.tol3bus.snoop_filter.tot_snoops              2                       # Total number of snoops made to the snoop filter.
system.tol3bus.snoops                           27992                       # Total snoops (count)
system.tol3bus.trans_dist::ReadResp             27607                       # Transaction distribution
system.tol3bus.trans_dist::WritebackDirty        55442                       # Transaction distribution
system.tol3bus.trans_dist::CleanEvict             625                       # Transaction distribution
system.tol3bus.trans_dist::ReadExReq              490                       # Transaction distribution
system.tol3bus.trans_dist::ReadExResp             490                       # Transaction distribution
system.tol3bus.trans_dist::ReadSharedReq        27608                       # Transaction distribution
system.bridge.pwrStateResidencyTicks::UNDEFINED    784577500                       # Cumulative time (in ticks) in various power states
system.voltage_domain.voltage                       1                       # Voltage in Volts
system.membus.pwrStateResidencyTicks::UNDEFINED    784577500                       # Cumulative time (in ticks) in various power states
system.membus.badaddr_responder.pwrStateResidencyTicks::UNDEFINED    784577500                       # Cumulative time (in ticks) in various power states
system.apicbridge.pwrStateResidencyTicks::UNDEFINED    784577500                       # Cumulative time (in ticks) in various power states
system.tol3bus.pwrStateResidencyTicks::UNDEFINED    784577500                       # Cumulative time (in ticks) in various power states
system.switch_cpus.pwrStateResidencyTicks::OFF    784577500                       # Cumulative time (in ticks) in various power states
system.switch_cpus.dtb.walker.pwrStateResidencyTicks::UNDEFINED    784577500                       # Cumulative time (in ticks) in various power states
system.switch_cpus.itb.walker.pwrStateResidencyTicks::UNDEFINED    784577500                       # Cumulative time (in ticks) in various power states
system.clk_domain.clock                          1000                       # Clock period in ticks
system.pc.fake_com_4.pwrStateResidencyTicks::UNDEFINED    784577500                       # Cumulative time (in ticks) in various power states
system.pc.fake_com_2.pwrStateResidencyTicks::UNDEFINED    784577500                       # Cumulative time (in ticks) in various power states
system.pc.fake_com_3.pwrStateResidencyTicks::UNDEFINED    784577500                       # Cumulative time (in ticks) in various power states
system.pc.south_bridge.io_apic.pwrStateResidencyTicks::UNDEFINED    784577500                       # Cumulative time (in ticks) in various power states
system.pc.south_bridge.pic1.pwrStateResidencyTicks::UNDEFINED    784577500                       # Cumulative time (in ticks) in various power states
system.pc.south_bridge.pic2.pwrStateResidencyTicks::UNDEFINED    784577500                       # Cumulative time (in ticks) in various power states
system.pc.south_bridge.dma1.pwrStateResidencyTicks::UNDEFINED    784577500                       # Cumulative time (in ticks) in various power states
system.pc.south_bridge.speaker.pwrStateResidencyTicks::UNDEFINED    784577500                       # Cumulative time (in ticks) in various power states
system.pc.south_bridge.keyboard.pwrStateResidencyTicks::UNDEFINED    784577500                       # Cumulative time (in ticks) in various power states
system.pc.south_bridge.ide.pwrStateResidencyTicks::UNDEFINED    784577500                       # Cumulative time (in ticks) in various power states
system.pc.south_bridge.pit.pwrStateResidencyTicks::UNDEFINED    784577500                       # Cumulative time (in ticks) in various power states
system.pc.south_bridge.cmos.pwrStateResidencyTicks::UNDEFINED    784577500                       # Cumulative time (in ticks) in various power states
system.pc.i_dont_exist2.pwrStateResidencyTicks::UNDEFINED    784577500                       # Cumulative time (in ticks) in various power states
system.pc.i_dont_exist1.pwrStateResidencyTicks::UNDEFINED    784577500                       # Cumulative time (in ticks) in various power states
system.pc.com_1.pwrStateResidencyTicks::UNDEFINED    784577500                       # Cumulative time (in ticks) in various power states
system.pc.fake_floppy.pwrStateResidencyTicks::UNDEFINED    784577500                       # Cumulative time (in ticks) in various power states
system.pc.behind_pci.pwrStateResidencyTicks::UNDEFINED    784577500                       # Cumulative time (in ticks) in various power states
system.pc.pci_host.pwrStateResidencyTicks::UNDEFINED    784577500                       # Cumulative time (in ticks) in various power states
system.cpu_clk_domain.clock                       250                       # Clock period in ticks
system.iocache.pwrStateResidencyTicks::UNDEFINED    784577500                       # Cumulative time (in ticks) in various power states
system.iocache.tlbTagged.walker.pwrStateResidencyTicks::UNDEFINED    784577500                       # Cumulative time (in ticks) in various power states
system.iocache.tags.pwrStateResidencyTicks::UNDEFINED    784577500                       # Cumulative time (in ticks) in various power states
system.mem_ctrls0.pwrStateResidencyTicks::UNDEFINED    784577500                       # Cumulative time (in ticks) in various power states
system.mem_ctrls1.pwrStateResidencyTicks::UNDEFINED    784577500                       # Cumulative time (in ticks) in various power states
system.l3.pwrStateResidencyTicks::UNDEFINED    784577500                       # Cumulative time (in ticks) in various power states
system.l3.tlbTagged.walker.pwrStateResidencyTicks::UNDEFINED    784577500                       # Cumulative time (in ticks) in various power states
system.l3.tags.pwrStateResidencyTicks::UNDEFINED    784577500                       # Cumulative time (in ticks) in various power states
system.cpu_voltage_domain.voltage                   1                       # Voltage in Volts
system.iobus.pwrStateResidencyTicks::UNDEFINED    784577500                       # Cumulative time (in ticks) in various power states
system.cpu.pwrStateResidencyTicks::OFF      784577500                       # Cumulative time (in ticks) in various power states
system.cpu.icache.pwrStateResidencyTicks::UNDEFINED    784577500                       # Cumulative time (in ticks) in various power states
system.cpu.icache.tlbTagged.walker.pwrStateResidencyTicks::UNDEFINED    784577500                       # Cumulative time (in ticks) in various power states
system.cpu.icache.tags.pwrStateResidencyTicks::UNDEFINED    784577500                       # Cumulative time (in ticks) in various power states
system.cpu.dtb.walker.pwrStateResidencyTicks::UNDEFINED    784577500                       # Cumulative time (in ticks) in various power states
system.cpu.interrupts.pwrStateResidencyTicks::UNDEFINED    784577500                       # Cumulative time (in ticks) in various power states
system.cpu.interrupts.clk_domain.clock           4000                       # Clock period in ticks
system.cpu.itb_walker_cache.pwrStateResidencyTicks::UNDEFINED    784577500                       # Cumulative time (in ticks) in various power states
system.cpu.itb_walker_cache.tlbTagged.walker.pwrStateResidencyTicks::UNDEFINED    784577500                       # Cumulative time (in ticks) in various power states
system.cpu.itb_walker_cache.tags.pwrStateResidencyTicks::UNDEFINED    784577500                       # Cumulative time (in ticks) in various power states
system.cpu.itb.walker.pwrStateResidencyTicks::UNDEFINED    784577500                       # Cumulative time (in ticks) in various power states
system.cpu.dtb_walker_cache.pwrStateResidencyTicks::UNDEFINED    784577500                       # Cumulative time (in ticks) in various power states
system.cpu.dtb_walker_cache.tlbTagged.walker.pwrStateResidencyTicks::UNDEFINED    784577500                       # Cumulative time (in ticks) in various power states
system.cpu.dtb_walker_cache.tags.pwrStateResidencyTicks::UNDEFINED    784577500                       # Cumulative time (in ticks) in various power states
system.cpu.dcache.pwrStateResidencyTicks::UNDEFINED    784577500                       # Cumulative time (in ticks) in various power states
system.cpu.dcache.tlbTagged.walker.pwrStateResidencyTicks::UNDEFINED    784577500                       # Cumulative time (in ticks) in various power states
system.cpu.dcache.prefetcher.pwrStateResidencyTicks::UNDEFINED    784577500                       # Cumulative time (in ticks) in various power states
system.cpu.dcache.tags.pwrStateResidencyTicks::UNDEFINED    784577500                       # Cumulative time (in ticks) in various power states
system.cpu.l2cache.pwrStateResidencyTicks::UNDEFINED    784577500                       # Cumulative time (in ticks) in various power states
system.cpu.l2cache.tlbTagged.walker.pwrStateResidencyTicks::UNDEFINED    784577500                       # Cumulative time (in ticks) in various power states
system.cpu.l2cache.prefetcher.pwrStateResidencyTicks::UNDEFINED    784577500                       # Cumulative time (in ticks) in various power states
system.cpu.l2cache.tags.pwrStateResidencyTicks::UNDEFINED    784577500                       # Cumulative time (in ticks) in various power states
system.cpu.toL2Bus.pwrStateResidencyTicks::UNDEFINED    784577500                       # Cumulative time (in ticks) in various power states

---------- End Simulation Statistics   ----------
