
---------- Begin Simulation Statistics ----------
final_tick                               807345542743500                       # Number of ticks from beginning of simulation (restored from checkpoints and never reset)
host_inst_rate                                  28860                       # Simulator instruction rate (inst/s)
host_mem_usage                               17066936                       # Number of bytes of host memory used
host_op_rate                                    47999                       # Simulator op (including micro ops) rate (op/s)
host_seconds                                  3465.05                       # Real time elapsed on the host
host_tick_rate                               22189412                       # Simulator tick rate (ticks/s)
sim_freq                                 1000000000000                       # Frequency of simulated ticks
sim_insts                                   100000000                       # Number of instructions simulated
sim_ops                                     166319252                       # Number of ops (including micro ops) simulated
sim_seconds                                  0.076888                       # Number of seconds simulated
sim_ticks                                 76887524250                       # Number of ticks simulated
system.cpu.committedInsts                           0                       # Number of instructions committed
system.cpu.dcache.DataMeta::0                       0                       # Distribution of access
system.cpu.dcache.DataMeta::1                       0                       # Distribution of access
system.cpu.dcache.DataMeta::2                       0                       # Distribution of access
system.cpu.dcache.DataMeta::3                       0                       # Distribution of access
system.cpu.dcache.HardPFReq_avg_mshr_miss_latency::.cpu.dcache.prefetcher 47763.433779                       # average HardPFReq mshr miss latency
system.cpu.dcache.HardPFReq_avg_mshr_miss_latency::total 47763.433779                       # average HardPFReq mshr miss latency
system.cpu.dcache.HardPFReq_mshr_miss_latency::.cpu.dcache.prefetcher 140296632598                       # number of HardPFReq MSHR miss cycles
system.cpu.dcache.HardPFReq_mshr_miss_latency::total 140296632598                       # number of HardPFReq MSHR miss cycles
system.cpu.dcache.HardPFReq_mshr_miss_rate::.cpu.dcache.prefetcher          inf                       # mshr miss rate for HardPFReq accesses
system.cpu.dcache.HardPFReq_mshr_miss_rate::total          inf                       # mshr miss rate for HardPFReq accesses
system.cpu.dcache.HardPFReq_mshr_misses::.cpu.dcache.prefetcher      2937323                       # number of HardPFReq MSHR misses
system.cpu.dcache.HardPFReq_mshr_misses::total      2937323                       # number of HardPFReq MSHR misses
system.cpu.dcache.ReadReq_accesses::.switch_cpus.data     13394857                       # number of ReadReq accesses(hits+misses)
system.cpu.dcache.ReadReq_accesses::total     13394857                       # number of ReadReq accesses(hits+misses)
system.cpu.dcache.ReadReq_avg_miss_latency::.switch_cpus.data 44604.827906                       # average ReadReq miss latency
system.cpu.dcache.ReadReq_avg_miss_latency::total 44604.827906                       # average ReadReq miss latency
system.cpu.dcache.ReadReq_avg_mshr_miss_latency::.switch_cpus.data 24558.411516                       # average ReadReq mshr miss latency
system.cpu.dcache.ReadReq_avg_mshr_miss_latency::total 24558.411516                       # average ReadReq mshr miss latency
system.cpu.dcache.ReadReq_hits::.switch_cpus.data     10743335                       # number of ReadReq hits
system.cpu.dcache.ReadReq_hits::total        10743335                       # number of ReadReq hits
system.cpu.dcache.ReadReq_miss_latency::.switch_cpus.data 118270682500                       # number of ReadReq miss cycles
system.cpu.dcache.ReadReq_miss_latency::total 118270682500                       # number of ReadReq miss cycles
system.cpu.dcache.ReadReq_miss_rate::.switch_cpus.data     0.197951                       # miss rate for ReadReq accesses
system.cpu.dcache.ReadReq_miss_rate::total     0.197951                       # miss rate for ReadReq accesses
system.cpu.dcache.ReadReq_misses::.switch_cpus.data      2651522                       # number of ReadReq misses
system.cpu.dcache.ReadReq_misses::total       2651522                       # number of ReadReq misses
system.cpu.dcache.ReadReq_mshr_hits::.switch_cpus.data      2449644                       # number of ReadReq MSHR hits
system.cpu.dcache.ReadReq_mshr_hits::total      2449644                       # number of ReadReq MSHR hits
system.cpu.dcache.ReadReq_mshr_miss_latency::.switch_cpus.data   4957803000                       # number of ReadReq MSHR miss cycles
system.cpu.dcache.ReadReq_mshr_miss_latency::total   4957803000                       # number of ReadReq MSHR miss cycles
system.cpu.dcache.ReadReq_mshr_miss_rate::.switch_cpus.data     0.015071                       # mshr miss rate for ReadReq accesses
system.cpu.dcache.ReadReq_mshr_miss_rate::total     0.015071                       # mshr miss rate for ReadReq accesses
system.cpu.dcache.ReadReq_mshr_misses::.switch_cpus.data       201878                       # number of ReadReq MSHR misses
system.cpu.dcache.ReadReq_mshr_misses::total       201878                       # number of ReadReq MSHR misses
system.cpu.dcache.SoftPFReq_accesses::.switch_cpus.data           52                       # number of SoftPFReq accesses(hits+misses)
system.cpu.dcache.SoftPFReq_accesses::total           52                       # number of SoftPFReq accesses(hits+misses)
system.cpu.dcache.SoftPFReq_avg_mshr_miss_latency::.switch_cpus.data 92321.428571                       # average SoftPFReq mshr miss latency
system.cpu.dcache.SoftPFReq_avg_mshr_miss_latency::total 92321.428571                       # average SoftPFReq mshr miss latency
system.cpu.dcache.SoftPFReq_hits::.switch_cpus.data           10                       # number of SoftPFReq hits
system.cpu.dcache.SoftPFReq_hits::total            10                       # number of SoftPFReq hits
system.cpu.dcache.SoftPFReq_miss_rate::.switch_cpus.data     0.807692                       # miss rate for SoftPFReq accesses
system.cpu.dcache.SoftPFReq_miss_rate::total     0.807692                       # miss rate for SoftPFReq accesses
system.cpu.dcache.SoftPFReq_misses::.switch_cpus.data           42                       # number of SoftPFReq misses
system.cpu.dcache.SoftPFReq_misses::total           42                       # number of SoftPFReq misses
system.cpu.dcache.SoftPFReq_mshr_miss_latency::.switch_cpus.data      3877500                       # number of SoftPFReq MSHR miss cycles
system.cpu.dcache.SoftPFReq_mshr_miss_latency::total      3877500                       # number of SoftPFReq MSHR miss cycles
system.cpu.dcache.SoftPFReq_mshr_miss_rate::.switch_cpus.data     0.807692                       # mshr miss rate for SoftPFReq accesses
system.cpu.dcache.SoftPFReq_mshr_miss_rate::total     0.807692                       # mshr miss rate for SoftPFReq accesses
system.cpu.dcache.SoftPFReq_mshr_misses::.switch_cpus.data           42                       # number of SoftPFReq MSHR misses
system.cpu.dcache.SoftPFReq_mshr_misses::total           42                       # number of SoftPFReq MSHR misses
system.cpu.dcache.WriteReq_accesses::.switch_cpus.data     37965349                       # number of WriteReq accesses(hits+misses)
system.cpu.dcache.WriteReq_accesses::total     37965349                       # number of WriteReq accesses(hits+misses)
system.cpu.dcache.WriteReq_avg_miss_latency::.switch_cpus.data 27216.739884                       # average WriteReq miss latency
system.cpu.dcache.WriteReq_avg_miss_latency::total 27216.739884                       # average WriteReq miss latency
system.cpu.dcache.WriteReq_avg_mshr_miss_latency::.switch_cpus.data 15277.596366                       # average WriteReq mshr miss latency
system.cpu.dcache.WriteReq_avg_mshr_miss_latency::total 15277.596366                       # average WriteReq mshr miss latency
system.cpu.dcache.WriteReq_hits::.switch_cpus.data     36635295                       # number of WriteReq hits
system.cpu.dcache.WriteReq_hits::total       36635295                       # number of WriteReq hits
system.cpu.dcache.WriteReq_miss_latency::.switch_cpus.data  36199733750                       # number of WriteReq miss cycles
system.cpu.dcache.WriteReq_miss_latency::total  36199733750                       # number of WriteReq miss cycles
system.cpu.dcache.WriteReq_miss_rate::.switch_cpus.data     0.035033                       # miss rate for WriteReq accesses
system.cpu.dcache.WriteReq_miss_rate::total     0.035033                       # miss rate for WriteReq accesses
system.cpu.dcache.WriteReq_misses::.switch_cpus.data      1330054                       # number of WriteReq misses
system.cpu.dcache.WriteReq_misses::total      1330054                       # number of WriteReq misses
system.cpu.dcache.WriteReq_mshr_hits::.switch_cpus.data       420061                       # number of WriteReq MSHR hits
system.cpu.dcache.WriteReq_mshr_hits::total       420061                       # number of WriteReq MSHR hits
system.cpu.dcache.WriteReq_mshr_miss_latency::.switch_cpus.data  13902505750                       # number of WriteReq MSHR miss cycles
system.cpu.dcache.WriteReq_mshr_miss_latency::total  13902505750                       # number of WriteReq MSHR miss cycles
system.cpu.dcache.WriteReq_mshr_miss_rate::.switch_cpus.data     0.023969                       # mshr miss rate for WriteReq accesses
system.cpu.dcache.WriteReq_mshr_miss_rate::total     0.023969                       # mshr miss rate for WriteReq accesses
system.cpu.dcache.WriteReq_mshr_misses::.switch_cpus.data       909993                       # number of WriteReq MSHR misses
system.cpu.dcache.WriteReq_mshr_misses::total       909993                       # number of WriteReq MSHR misses
system.cpu.dcache.WriteReq_mshr_uncacheable::.switch_cpus.data           77                       # number of WriteReq MSHR uncacheable
system.cpu.dcache.WriteReq_mshr_uncacheable::total           77                       # number of WriteReq MSHR uncacheable
system.cpu.dcache.avg_blocked_cycles::no_mshrs    98.100000                       # average number of cycles each access was blocked
system.cpu.dcache.avg_blocked_cycles::no_targets   152.352941                       # average number of cycles each access was blocked
system.cpu.dcache.blocked::no_mshrs                10                       # number of cycles access was blocked
system.cpu.dcache.blocked::no_targets              17                       # number of cycles access was blocked
system.cpu.dcache.blocked_cycles::no_mshrs          981                       # number of cycles access was blocked
system.cpu.dcache.blocked_cycles::no_targets         2590                       # number of cycles access was blocked
system.cpu.dcache.demand_accesses::.switch_cpus.data     51360206                       # number of demand (read+write) accesses
system.cpu.dcache.demand_accesses::total     51360206                       # number of demand (read+write) accesses
system.cpu.dcache.demand_avg_miss_latency::.switch_cpus.data 38796.299819                       # average overall miss latency
system.cpu.dcache.demand_avg_miss_latency::total 38796.299819                       # average overall miss latency
system.cpu.dcache.demand_avg_mshr_miss_latency::.switch_cpus.data 16962.677100                       # average overall mshr miss latency
system.cpu.dcache.demand_avg_mshr_miss_latency::total 16962.677100                       # average overall mshr miss latency
system.cpu.dcache.demand_hits::.switch_cpus.data     47378630                       # number of demand (read+write) hits
system.cpu.dcache.demand_hits::total         47378630                       # number of demand (read+write) hits
system.cpu.dcache.demand_miss_latency::.switch_cpus.data 154470416250                       # number of demand (read+write) miss cycles
system.cpu.dcache.demand_miss_latency::total 154470416250                       # number of demand (read+write) miss cycles
system.cpu.dcache.demand_miss_rate::.switch_cpus.data     0.077523                       # miss rate for demand accesses
system.cpu.dcache.demand_miss_rate::total     0.077523                       # miss rate for demand accesses
system.cpu.dcache.demand_misses::.switch_cpus.data      3981576                       # number of demand (read+write) misses
system.cpu.dcache.demand_misses::total        3981576                       # number of demand (read+write) misses
system.cpu.dcache.demand_mshr_hits::.switch_cpus.data      2869705                       # number of demand (read+write) MSHR hits
system.cpu.dcache.demand_mshr_hits::total      2869705                       # number of demand (read+write) MSHR hits
system.cpu.dcache.demand_mshr_miss_latency::.switch_cpus.data  18860308750                       # number of demand (read+write) MSHR miss cycles
system.cpu.dcache.demand_mshr_miss_latency::total  18860308750                       # number of demand (read+write) MSHR miss cycles
system.cpu.dcache.demand_mshr_miss_rate::.switch_cpus.data     0.021648                       # mshr miss rate for demand accesses
system.cpu.dcache.demand_mshr_miss_rate::total     0.021648                       # mshr miss rate for demand accesses
system.cpu.dcache.demand_mshr_misses::.switch_cpus.data      1111871                       # number of demand (read+write) MSHR misses
system.cpu.dcache.demand_mshr_misses::total      1111871                       # number of demand (read+write) MSHR misses
system.cpu.dcache.overall_accesses::.switch_cpus.data     51360258                       # number of overall (read+write) accesses
system.cpu.dcache.overall_accesses::total     51360258                       # number of overall (read+write) accesses
system.cpu.dcache.overall_avg_miss_latency::.switch_cpus.data 38795.890578                       # average overall miss latency
system.cpu.dcache.overall_avg_miss_latency::total 38795.890578                       # average overall miss latency
system.cpu.dcache.overall_avg_mshr_miss_latency::.cpu.dcache.prefetcher 47763.433779                       # average overall mshr miss latency
system.cpu.dcache.overall_avg_mshr_miss_latency::.switch_cpus.data 16965.523607                       # average overall mshr miss latency
system.cpu.dcache.overall_avg_mshr_miss_latency::total 39306.382450                       # average overall mshr miss latency
system.cpu.dcache.overall_hits::.switch_cpus.data     47378640                       # number of overall hits
system.cpu.dcache.overall_hits::total        47378640                       # number of overall hits
system.cpu.dcache.overall_miss_latency::.switch_cpus.data 154470416250                       # number of overall miss cycles
system.cpu.dcache.overall_miss_latency::total 154470416250                       # number of overall miss cycles
system.cpu.dcache.overall_miss_rate::.switch_cpus.data     0.077523                       # miss rate for overall accesses
system.cpu.dcache.overall_miss_rate::total     0.077523                       # miss rate for overall accesses
system.cpu.dcache.overall_misses::.switch_cpus.data      3981618                       # number of overall misses
system.cpu.dcache.overall_misses::total       3981618                       # number of overall misses
system.cpu.dcache.overall_mshr_hits::.switch_cpus.data      2869705                       # number of overall MSHR hits
system.cpu.dcache.overall_mshr_hits::total      2869705                       # number of overall MSHR hits
system.cpu.dcache.overall_mshr_miss_latency::.cpu.dcache.prefetcher 140296632598                       # number of overall MSHR miss cycles
system.cpu.dcache.overall_mshr_miss_latency::.switch_cpus.data  18864186250                       # number of overall MSHR miss cycles
system.cpu.dcache.overall_mshr_miss_latency::total 159160818848                       # number of overall MSHR miss cycles
system.cpu.dcache.overall_mshr_miss_rate::.cpu.dcache.prefetcher          inf                       # mshr miss rate for overall accesses
system.cpu.dcache.overall_mshr_miss_rate::.switch_cpus.data     0.021649                       # mshr miss rate for overall accesses
system.cpu.dcache.overall_mshr_miss_rate::total     0.078840                       # mshr miss rate for overall accesses
system.cpu.dcache.overall_mshr_misses::.cpu.dcache.prefetcher      2937323                       # number of overall MSHR misses
system.cpu.dcache.overall_mshr_misses::.switch_cpus.data      1111913                       # number of overall MSHR misses
system.cpu.dcache.overall_mshr_misses::total      4049236                       # number of overall MSHR misses
system.cpu.dcache.overall_mshr_uncacheable_misses::.switch_cpus.data           77                       # number of overall MSHR uncacheable misses
system.cpu.dcache.overall_mshr_uncacheable_misses::total           77                       # number of overall MSHR uncacheable misses
system.cpu.dcache.prefetcher.num_hwpf_issued      7086546                       # number of hwpf issued
system.cpu.dcache.prefetcher.pfBufferHit       440698                       # number of redundant prefetches already in prefetch queue
system.cpu.dcache.prefetcher.pfIdentified      7778928                       # number of prefetch candidates identified
system.cpu.dcache.prefetcher.pfInCache              0                       # number of redundant prefetches already in cache/mshr dropped
system.cpu.dcache.prefetcher.pfRemovedFull            0                       # number of prefetches dropped due to prefetch queue size
system.cpu.dcache.prefetcher.pfSpanPage        184224                       # number of prefetches that crossed the page
system.cpu.dcache.replacements                4045743                       # number of replacements
system.cpu.dcache.tags.age_task_id_blocks_1022::0          218                       # Occupied blocks per task id
system.cpu.dcache.tags.age_task_id_blocks_1022::1          458                       # Occupied blocks per task id
system.cpu.dcache.tags.age_task_id_blocks_1025::0          112                       # Occupied blocks per task id
system.cpu.dcache.tags.age_task_id_blocks_1025::1          234                       # Occupied blocks per task id
system.cpu.dcache.tags.age_task_id_blocks_1025::3            2                       # Occupied blocks per task id
system.cpu.dcache.tags.avg_refs             12.255732                       # Average number of references to valid blocks.
system.cpu.dcache.tags.data_accesses        414928831                       # Number of data accesses
system.cpu.dcache.tags.occ_blocks::.cpu.dcache.prefetcher   731.284257                       # Average occupied blocks per requestor
system.cpu.dcache.tags.occ_blocks::.switch_cpus.data   292.634095                       # Average occupied blocks per requestor
system.cpu.dcache.tags.occ_percent::.cpu.dcache.prefetcher     0.714145                       # Average percentage of cache occupancy
system.cpu.dcache.tags.occ_percent::.switch_cpus.data     0.285775                       # Average percentage of cache occupancy
system.cpu.dcache.tags.occ_percent::total     0.999920                       # Average percentage of cache occupancy
system.cpu.dcache.tags.occ_task_id_blocks::1022          676                       # Occupied blocks per task id
system.cpu.dcache.tags.occ_task_id_blocks::1025          348                       # Occupied blocks per task id
system.cpu.dcache.tags.occ_task_id_percent::1022     0.660156                       # Percentage of cache occupancy per task id
system.cpu.dcache.tags.occ_task_id_percent::1025     0.339844                       # Percentage of cache occupancy per task id
system.cpu.dcache.tags.sampled_refs           4045743                       # Sample count of references to valid blocks.
system.cpu.dcache.tags.tag_accesses         414928831                       # Number of tag accesses
system.cpu.dcache.tags.tagsinuse          1023.918352                       # Cycle average of tags in use
system.cpu.dcache.tags.total_refs            49583542                       # Total number of references to valid blocks.
system.cpu.dcache.tags.warmup_cycle      807268655845000                       # Cycle when the warmup percentage was hit.
system.cpu.dcache.tlbTagged.rdAccesses              0                       # TLB accesses on read requests
system.cpu.dcache.tlbTagged.rdMisses                0                       # TLB misses on read requests
system.cpu.dcache.tlbTagged.wrAccesses              0                       # TLB accesses on write requests
system.cpu.dcache.tlbTagged.wrMisses                0                       # TLB misses on write requests
system.cpu.dcache.unused_prefetches            170106                       # number of HardPF blocks evicted w/o reference
system.cpu.dcache.writebacks::.writebacks      3219939                       # number of writebacks
system.cpu.dcache.writebacks::total           3219939                       # number of writebacks
system.cpu.dtb.rdAccesses                           0                       # TLB accesses on read requests
system.cpu.dtb.rdMisses                             0                       # TLB misses on read requests
system.cpu.dtb.wrAccesses                           0                       # TLB accesses on write requests
system.cpu.dtb.wrMisses                             0                       # TLB misses on write requests
system.cpu.dtb_walker_cache.DataMeta::0             0                       # Distribution of access
system.cpu.dtb_walker_cache.DataMeta::1             0                       # Distribution of access
system.cpu.dtb_walker_cache.DataMeta::2             0                       # Distribution of access
system.cpu.dtb_walker_cache.DataMeta::3             0                       # Distribution of access
system.cpu.dtb_walker_cache.ReadReq_accesses::.switch_cpus.dtb.walker        21650                       # number of ReadReq accesses(hits+misses)
system.cpu.dtb_walker_cache.ReadReq_accesses::total        21650                       # number of ReadReq accesses(hits+misses)
system.cpu.dtb_walker_cache.ReadReq_avg_miss_latency::.switch_cpus.dtb.walker 19141.207627                       # average ReadReq miss latency
system.cpu.dtb_walker_cache.ReadReq_avg_miss_latency::total 19141.207627                       # average ReadReq miss latency
system.cpu.dtb_walker_cache.ReadReq_avg_mshr_miss_latency::.switch_cpus.dtb.walker 18641.207627                       # average ReadReq mshr miss latency
system.cpu.dtb_walker_cache.ReadReq_avg_mshr_miss_latency::total 18641.207627                       # average ReadReq mshr miss latency
system.cpu.dtb_walker_cache.ReadReq_hits::.switch_cpus.dtb.walker        16930                       # number of ReadReq hits
system.cpu.dtb_walker_cache.ReadReq_hits::total        16930                       # number of ReadReq hits
system.cpu.dtb_walker_cache.ReadReq_miss_latency::.switch_cpus.dtb.walker     90346500                       # number of ReadReq miss cycles
system.cpu.dtb_walker_cache.ReadReq_miss_latency::total     90346500                       # number of ReadReq miss cycles
system.cpu.dtb_walker_cache.ReadReq_miss_rate::.switch_cpus.dtb.walker     0.218014                       # miss rate for ReadReq accesses
system.cpu.dtb_walker_cache.ReadReq_miss_rate::total     0.218014                       # miss rate for ReadReq accesses
system.cpu.dtb_walker_cache.ReadReq_misses::.switch_cpus.dtb.walker         4720                       # number of ReadReq misses
system.cpu.dtb_walker_cache.ReadReq_misses::total         4720                       # number of ReadReq misses
system.cpu.dtb_walker_cache.ReadReq_mshr_miss_latency::.switch_cpus.dtb.walker     87986500                       # number of ReadReq MSHR miss cycles
system.cpu.dtb_walker_cache.ReadReq_mshr_miss_latency::total     87986500                       # number of ReadReq MSHR miss cycles
system.cpu.dtb_walker_cache.ReadReq_mshr_miss_rate::.switch_cpus.dtb.walker     0.218014                       # mshr miss rate for ReadReq accesses
system.cpu.dtb_walker_cache.ReadReq_mshr_miss_rate::total     0.218014                       # mshr miss rate for ReadReq accesses
system.cpu.dtb_walker_cache.ReadReq_mshr_misses::.switch_cpus.dtb.walker         4720                       # number of ReadReq MSHR misses
system.cpu.dtb_walker_cache.ReadReq_mshr_misses::total         4720                       # number of ReadReq MSHR misses
system.cpu.dtb_walker_cache.avg_blocked_cycles::no_mshrs          nan                       # average number of cycles each access was blocked
system.cpu.dtb_walker_cache.avg_blocked_cycles::no_targets          nan                       # average number of cycles each access was blocked
system.cpu.dtb_walker_cache.blocked::no_mshrs            0                       # number of cycles access was blocked
system.cpu.dtb_walker_cache.blocked::no_targets            0                       # number of cycles access was blocked
system.cpu.dtb_walker_cache.blocked_cycles::no_mshrs            0                       # number of cycles access was blocked
system.cpu.dtb_walker_cache.blocked_cycles::no_targets            0                       # number of cycles access was blocked
system.cpu.dtb_walker_cache.demand_accesses::.switch_cpus.dtb.walker        21650                       # number of demand (read+write) accesses
system.cpu.dtb_walker_cache.demand_accesses::total        21650                       # number of demand (read+write) accesses
system.cpu.dtb_walker_cache.demand_avg_miss_latency::.switch_cpus.dtb.walker 19141.207627                       # average overall miss latency
system.cpu.dtb_walker_cache.demand_avg_miss_latency::total 19141.207627                       # average overall miss latency
system.cpu.dtb_walker_cache.demand_avg_mshr_miss_latency::.switch_cpus.dtb.walker 18641.207627                       # average overall mshr miss latency
system.cpu.dtb_walker_cache.demand_avg_mshr_miss_latency::total 18641.207627                       # average overall mshr miss latency
system.cpu.dtb_walker_cache.demand_hits::.switch_cpus.dtb.walker        16930                       # number of demand (read+write) hits
system.cpu.dtb_walker_cache.demand_hits::total        16930                       # number of demand (read+write) hits
system.cpu.dtb_walker_cache.demand_miss_latency::.switch_cpus.dtb.walker     90346500                       # number of demand (read+write) miss cycles
system.cpu.dtb_walker_cache.demand_miss_latency::total     90346500                       # number of demand (read+write) miss cycles
system.cpu.dtb_walker_cache.demand_miss_rate::.switch_cpus.dtb.walker     0.218014                       # miss rate for demand accesses
system.cpu.dtb_walker_cache.demand_miss_rate::total     0.218014                       # miss rate for demand accesses
system.cpu.dtb_walker_cache.demand_misses::.switch_cpus.dtb.walker         4720                       # number of demand (read+write) misses
system.cpu.dtb_walker_cache.demand_misses::total         4720                       # number of demand (read+write) misses
system.cpu.dtb_walker_cache.demand_mshr_miss_latency::.switch_cpus.dtb.walker     87986500                       # number of demand (read+write) MSHR miss cycles
system.cpu.dtb_walker_cache.demand_mshr_miss_latency::total     87986500                       # number of demand (read+write) MSHR miss cycles
system.cpu.dtb_walker_cache.demand_mshr_miss_rate::.switch_cpus.dtb.walker     0.218014                       # mshr miss rate for demand accesses
system.cpu.dtb_walker_cache.demand_mshr_miss_rate::total     0.218014                       # mshr miss rate for demand accesses
system.cpu.dtb_walker_cache.demand_mshr_misses::.switch_cpus.dtb.walker         4720                       # number of demand (read+write) MSHR misses
system.cpu.dtb_walker_cache.demand_mshr_misses::total         4720                       # number of demand (read+write) MSHR misses
system.cpu.dtb_walker_cache.overall_accesses::.switch_cpus.dtb.walker        21650                       # number of overall (read+write) accesses
system.cpu.dtb_walker_cache.overall_accesses::total        21650                       # number of overall (read+write) accesses
system.cpu.dtb_walker_cache.overall_avg_miss_latency::.switch_cpus.dtb.walker 19141.207627                       # average overall miss latency
system.cpu.dtb_walker_cache.overall_avg_miss_latency::total 19141.207627                       # average overall miss latency
system.cpu.dtb_walker_cache.overall_avg_mshr_miss_latency::.switch_cpus.dtb.walker 18641.207627                       # average overall mshr miss latency
system.cpu.dtb_walker_cache.overall_avg_mshr_miss_latency::total 18641.207627                       # average overall mshr miss latency
system.cpu.dtb_walker_cache.overall_hits::.switch_cpus.dtb.walker        16930                       # number of overall hits
system.cpu.dtb_walker_cache.overall_hits::total        16930                       # number of overall hits
system.cpu.dtb_walker_cache.overall_miss_latency::.switch_cpus.dtb.walker     90346500                       # number of overall miss cycles
system.cpu.dtb_walker_cache.overall_miss_latency::total     90346500                       # number of overall miss cycles
system.cpu.dtb_walker_cache.overall_miss_rate::.switch_cpus.dtb.walker     0.218014                       # miss rate for overall accesses
system.cpu.dtb_walker_cache.overall_miss_rate::total     0.218014                       # miss rate for overall accesses
system.cpu.dtb_walker_cache.overall_misses::.switch_cpus.dtb.walker         4720                       # number of overall misses
system.cpu.dtb_walker_cache.overall_misses::total         4720                       # number of overall misses
system.cpu.dtb_walker_cache.overall_mshr_miss_latency::.switch_cpus.dtb.walker     87986500                       # number of overall MSHR miss cycles
system.cpu.dtb_walker_cache.overall_mshr_miss_latency::total     87986500                       # number of overall MSHR miss cycles
system.cpu.dtb_walker_cache.overall_mshr_miss_rate::.switch_cpus.dtb.walker     0.218014                       # mshr miss rate for overall accesses
system.cpu.dtb_walker_cache.overall_mshr_miss_rate::total     0.218014                       # mshr miss rate for overall accesses
system.cpu.dtb_walker_cache.overall_mshr_misses::.switch_cpus.dtb.walker         4720                       # number of overall MSHR misses
system.cpu.dtb_walker_cache.overall_mshr_misses::total         4720                       # number of overall MSHR misses
system.cpu.dtb_walker_cache.replacements         4663                       # number of replacements
system.cpu.dtb_walker_cache.tags.age_task_id_blocks_1025::2            2                       # Occupied blocks per task id
system.cpu.dtb_walker_cache.tags.age_task_id_blocks_1025::3            6                       # Occupied blocks per task id
system.cpu.dtb_walker_cache.tags.age_task_id_blocks_1025::4            8                       # Occupied blocks per task id
system.cpu.dtb_walker_cache.tags.avg_refs     4.365221                       # Average number of references to valid blocks.
system.cpu.dtb_walker_cache.tags.data_accesses        48020                       # Number of data accesses
system.cpu.dtb_walker_cache.tags.occ_blocks::.switch_cpus.dtb.walker    15.837633                       # Average occupied blocks per requestor
system.cpu.dtb_walker_cache.tags.occ_percent::.switch_cpus.dtb.walker     0.989852                       # Average percentage of cache occupancy
system.cpu.dtb_walker_cache.tags.occ_percent::total     0.989852                       # Average percentage of cache occupancy
system.cpu.dtb_walker_cache.tags.occ_task_id_blocks::1025           16                       # Occupied blocks per task id
system.cpu.dtb_walker_cache.tags.occ_task_id_percent::1025            1                       # Percentage of cache occupancy per task id
system.cpu.dtb_walker_cache.tags.sampled_refs         4704                       # Sample count of references to valid blocks.
system.cpu.dtb_walker_cache.tags.tag_accesses        48020                       # Number of tag accesses
system.cpu.dtb_walker_cache.tags.tagsinuse    15.837633                       # Cycle average of tags in use
system.cpu.dtb_walker_cache.tags.total_refs        20534                       # Total number of references to valid blocks.
system.cpu.dtb_walker_cache.tags.warmup_cycle 807268655674000                       # Cycle when the warmup percentage was hit.
system.cpu.dtb_walker_cache.tlbTagged.rdAccesses            0                       # TLB accesses on read requests
system.cpu.dtb_walker_cache.tlbTagged.rdMisses            0                       # TLB misses on read requests
system.cpu.dtb_walker_cache.tlbTagged.wrAccesses            0                       # TLB accesses on write requests
system.cpu.dtb_walker_cache.tlbTagged.wrMisses            0                       # TLB misses on write requests
system.cpu.icache.DataMeta::0                       0                       # Distribution of access
system.cpu.icache.DataMeta::1                       0                       # Distribution of access
system.cpu.icache.DataMeta::2                       0                       # Distribution of access
system.cpu.icache.DataMeta::3                       0                       # Distribution of access
system.cpu.icache.ReadReq_accesses::.switch_cpus.inst      8758465                       # number of ReadReq accesses(hits+misses)
system.cpu.icache.ReadReq_accesses::total      8758465                       # number of ReadReq accesses(hits+misses)
system.cpu.icache.ReadReq_avg_miss_latency::.switch_cpus.inst 40835.739866                       # average ReadReq miss latency
system.cpu.icache.ReadReq_avg_miss_latency::total 40835.739866                       # average ReadReq miss latency
system.cpu.icache.ReadReq_avg_mshr_miss_latency::.switch_cpus.inst 40727.566522                       # average ReadReq mshr miss latency
system.cpu.icache.ReadReq_avg_mshr_miss_latency::total 40727.566522                       # average ReadReq mshr miss latency
system.cpu.icache.ReadReq_hits::.switch_cpus.inst      8745341                       # number of ReadReq hits
system.cpu.icache.ReadReq_hits::total         8745341                       # number of ReadReq hits
system.cpu.icache.ReadReq_miss_latency::.switch_cpus.inst    535928250                       # number of ReadReq miss cycles
system.cpu.icache.ReadReq_miss_latency::total    535928250                       # number of ReadReq miss cycles
system.cpu.icache.ReadReq_miss_rate::.switch_cpus.inst     0.001498                       # miss rate for ReadReq accesses
system.cpu.icache.ReadReq_miss_rate::total     0.001498                       # miss rate for ReadReq accesses
system.cpu.icache.ReadReq_misses::.switch_cpus.inst        13124                       # number of ReadReq misses
system.cpu.icache.ReadReq_misses::total         13124                       # number of ReadReq misses
system.cpu.icache.ReadReq_mshr_hits::.switch_cpus.inst         2526                       # number of ReadReq MSHR hits
system.cpu.icache.ReadReq_mshr_hits::total         2526                       # number of ReadReq MSHR hits
system.cpu.icache.ReadReq_mshr_miss_latency::.switch_cpus.inst    431630750                       # number of ReadReq MSHR miss cycles
system.cpu.icache.ReadReq_mshr_miss_latency::total    431630750                       # number of ReadReq MSHR miss cycles
system.cpu.icache.ReadReq_mshr_miss_rate::.switch_cpus.inst     0.001210                       # mshr miss rate for ReadReq accesses
system.cpu.icache.ReadReq_mshr_miss_rate::total     0.001210                       # mshr miss rate for ReadReq accesses
system.cpu.icache.ReadReq_mshr_misses::.switch_cpus.inst        10598                       # number of ReadReq MSHR misses
system.cpu.icache.ReadReq_mshr_misses::total        10598                       # number of ReadReq MSHR misses
system.cpu.icache.avg_blocked_cycles::no_mshrs          nan                       # average number of cycles each access was blocked
system.cpu.icache.avg_blocked_cycles::no_targets          nan                       # average number of cycles each access was blocked
system.cpu.icache.blocked::no_mshrs                 0                       # number of cycles access was blocked
system.cpu.icache.blocked::no_targets               0                       # number of cycles access was blocked
system.cpu.icache.blocked_cycles::no_mshrs            0                       # number of cycles access was blocked
system.cpu.icache.blocked_cycles::no_targets            0                       # number of cycles access was blocked
system.cpu.icache.demand_accesses::.switch_cpus.inst      8758465                       # number of demand (read+write) accesses
system.cpu.icache.demand_accesses::total      8758465                       # number of demand (read+write) accesses
system.cpu.icache.demand_avg_miss_latency::.switch_cpus.inst 40835.739866                       # average overall miss latency
system.cpu.icache.demand_avg_miss_latency::total 40835.739866                       # average overall miss latency
system.cpu.icache.demand_avg_mshr_miss_latency::.switch_cpus.inst 40727.566522                       # average overall mshr miss latency
system.cpu.icache.demand_avg_mshr_miss_latency::total 40727.566522                       # average overall mshr miss latency
system.cpu.icache.demand_hits::.switch_cpus.inst      8745341                       # number of demand (read+write) hits
system.cpu.icache.demand_hits::total          8745341                       # number of demand (read+write) hits
system.cpu.icache.demand_miss_latency::.switch_cpus.inst    535928250                       # number of demand (read+write) miss cycles
system.cpu.icache.demand_miss_latency::total    535928250                       # number of demand (read+write) miss cycles
system.cpu.icache.demand_miss_rate::.switch_cpus.inst     0.001498                       # miss rate for demand accesses
system.cpu.icache.demand_miss_rate::total     0.001498                       # miss rate for demand accesses
system.cpu.icache.demand_misses::.switch_cpus.inst        13124                       # number of demand (read+write) misses
system.cpu.icache.demand_misses::total          13124                       # number of demand (read+write) misses
system.cpu.icache.demand_mshr_hits::.switch_cpus.inst         2526                       # number of demand (read+write) MSHR hits
system.cpu.icache.demand_mshr_hits::total         2526                       # number of demand (read+write) MSHR hits
system.cpu.icache.demand_mshr_miss_latency::.switch_cpus.inst    431630750                       # number of demand (read+write) MSHR miss cycles
system.cpu.icache.demand_mshr_miss_latency::total    431630750                       # number of demand (read+write) MSHR miss cycles
system.cpu.icache.demand_mshr_miss_rate::.switch_cpus.inst     0.001210                       # mshr miss rate for demand accesses
system.cpu.icache.demand_mshr_miss_rate::total     0.001210                       # mshr miss rate for demand accesses
system.cpu.icache.demand_mshr_misses::.switch_cpus.inst        10598                       # number of demand (read+write) MSHR misses
system.cpu.icache.demand_mshr_misses::total        10598                       # number of demand (read+write) MSHR misses
system.cpu.icache.overall_accesses::.switch_cpus.inst      8758465                       # number of overall (read+write) accesses
system.cpu.icache.overall_accesses::total      8758465                       # number of overall (read+write) accesses
system.cpu.icache.overall_avg_miss_latency::.switch_cpus.inst 40835.739866                       # average overall miss latency
system.cpu.icache.overall_avg_miss_latency::total 40835.739866                       # average overall miss latency
system.cpu.icache.overall_avg_mshr_miss_latency::.switch_cpus.inst 40727.566522                       # average overall mshr miss latency
system.cpu.icache.overall_avg_mshr_miss_latency::total 40727.566522                       # average overall mshr miss latency
system.cpu.icache.overall_hits::.switch_cpus.inst      8745341                       # number of overall hits
system.cpu.icache.overall_hits::total         8745341                       # number of overall hits
system.cpu.icache.overall_miss_latency::.switch_cpus.inst    535928250                       # number of overall miss cycles
system.cpu.icache.overall_miss_latency::total    535928250                       # number of overall miss cycles
system.cpu.icache.overall_miss_rate::.switch_cpus.inst     0.001498                       # miss rate for overall accesses
system.cpu.icache.overall_miss_rate::total     0.001498                       # miss rate for overall accesses
system.cpu.icache.overall_misses::.switch_cpus.inst        13124                       # number of overall misses
system.cpu.icache.overall_misses::total         13124                       # number of overall misses
system.cpu.icache.overall_mshr_hits::.switch_cpus.inst         2526                       # number of overall MSHR hits
system.cpu.icache.overall_mshr_hits::total         2526                       # number of overall MSHR hits
system.cpu.icache.overall_mshr_miss_latency::.switch_cpus.inst    431630750                       # number of overall MSHR miss cycles
system.cpu.icache.overall_mshr_miss_latency::total    431630750                       # number of overall MSHR miss cycles
system.cpu.icache.overall_mshr_miss_rate::.switch_cpus.inst     0.001210                       # mshr miss rate for overall accesses
system.cpu.icache.overall_mshr_miss_rate::total     0.001210                       # mshr miss rate for overall accesses
system.cpu.icache.overall_mshr_misses::.switch_cpus.inst        10598                       # number of overall MSHR misses
system.cpu.icache.overall_mshr_misses::total        10598                       # number of overall MSHR misses
system.cpu.icache.replacements                  10086                       # number of replacements
system.cpu.icache.tags.age_task_id_blocks_1025::2           15                       # Occupied blocks per task id
system.cpu.icache.tags.age_task_id_blocks_1025::3          154                       # Occupied blocks per task id
system.cpu.icache.tags.age_task_id_blocks_1025::4          343                       # Occupied blocks per task id
system.cpu.icache.tags.avg_refs            231.204541                       # Average number of references to valid blocks.
system.cpu.icache.tags.data_accesses         35044458                       # Number of data accesses
system.cpu.icache.tags.occ_blocks::.switch_cpus.inst   480.400522                       # Average occupied blocks per requestor
system.cpu.icache.tags.occ_percent::.switch_cpus.inst     0.938282                       # Average percentage of cache occupancy
system.cpu.icache.tags.occ_percent::total     0.938282                       # Average percentage of cache occupancy
system.cpu.icache.tags.occ_task_id_blocks::1025          512                       # Occupied blocks per task id
system.cpu.icache.tags.occ_task_id_percent::1025            1                       # Percentage of cache occupancy per task id
system.cpu.icache.tags.sampled_refs             10086                       # Sample count of references to valid blocks.
system.cpu.icache.tags.tag_accesses          35044458                       # Number of tag accesses
system.cpu.icache.tags.tagsinuse           480.400522                       # Cycle average of tags in use
system.cpu.icache.tags.total_refs             2331929                       # Total number of references to valid blocks.
system.cpu.icache.tags.warmup_cycle      807268655668000                       # Cycle when the warmup percentage was hit.
system.cpu.icache.tlbTagged.rdAccesses              0                       # TLB accesses on read requests
system.cpu.icache.tlbTagged.rdMisses                0                       # TLB misses on read requests
system.cpu.icache.tlbTagged.wrAccesses              0                       # TLB accesses on write requests
system.cpu.icache.tlbTagged.wrMisses                0                       # TLB misses on write requests
system.cpu.icache.writebacks::.writebacks        10086                       # number of writebacks
system.cpu.icache.writebacks::total             10086                       # number of writebacks
system.cpu.itb.rdAccesses                           0                       # TLB accesses on read requests
system.cpu.itb.rdMisses                             0                       # TLB misses on read requests
system.cpu.itb.wrAccesses                           0                       # TLB accesses on write requests
system.cpu.itb.wrMisses                             0                       # TLB misses on write requests
system.cpu.itb_walker_cache.DataMeta::0             0                       # Distribution of access
system.cpu.itb_walker_cache.DataMeta::1             0                       # Distribution of access
system.cpu.itb_walker_cache.DataMeta::2             0                       # Distribution of access
system.cpu.itb_walker_cache.DataMeta::3             0                       # Distribution of access
system.cpu.itb_walker_cache.ReadReq_accesses::.switch_cpus.itb.walker          358                       # number of ReadReq accesses(hits+misses)
system.cpu.itb_walker_cache.ReadReq_accesses::total          358                       # number of ReadReq accesses(hits+misses)
system.cpu.itb_walker_cache.ReadReq_avg_miss_latency::.switch_cpus.itb.walker 60700.617284                       # average ReadReq miss latency
system.cpu.itb_walker_cache.ReadReq_avg_miss_latency::total 60700.617284                       # average ReadReq miss latency
system.cpu.itb_walker_cache.ReadReq_avg_mshr_miss_latency::.switch_cpus.itb.walker 60200.617284                       # average ReadReq mshr miss latency
system.cpu.itb_walker_cache.ReadReq_avg_mshr_miss_latency::total 60200.617284                       # average ReadReq mshr miss latency
system.cpu.itb_walker_cache.ReadReq_hits::.switch_cpus.itb.walker          277                       # number of ReadReq hits
system.cpu.itb_walker_cache.ReadReq_hits::total          277                       # number of ReadReq hits
system.cpu.itb_walker_cache.ReadReq_miss_latency::.switch_cpus.itb.walker      4916750                       # number of ReadReq miss cycles
system.cpu.itb_walker_cache.ReadReq_miss_latency::total      4916750                       # number of ReadReq miss cycles
system.cpu.itb_walker_cache.ReadReq_miss_rate::.switch_cpus.itb.walker     0.226257                       # miss rate for ReadReq accesses
system.cpu.itb_walker_cache.ReadReq_miss_rate::total     0.226257                       # miss rate for ReadReq accesses
system.cpu.itb_walker_cache.ReadReq_misses::.switch_cpus.itb.walker           81                       # number of ReadReq misses
system.cpu.itb_walker_cache.ReadReq_misses::total           81                       # number of ReadReq misses
system.cpu.itb_walker_cache.ReadReq_mshr_miss_latency::.switch_cpus.itb.walker      4876250                       # number of ReadReq MSHR miss cycles
system.cpu.itb_walker_cache.ReadReq_mshr_miss_latency::total      4876250                       # number of ReadReq MSHR miss cycles
system.cpu.itb_walker_cache.ReadReq_mshr_miss_rate::.switch_cpus.itb.walker     0.226257                       # mshr miss rate for ReadReq accesses
system.cpu.itb_walker_cache.ReadReq_mshr_miss_rate::total     0.226257                       # mshr miss rate for ReadReq accesses
system.cpu.itb_walker_cache.ReadReq_mshr_misses::.switch_cpus.itb.walker           81                       # number of ReadReq MSHR misses
system.cpu.itb_walker_cache.ReadReq_mshr_misses::total           81                       # number of ReadReq MSHR misses
system.cpu.itb_walker_cache.avg_blocked_cycles::no_mshrs          nan                       # average number of cycles each access was blocked
system.cpu.itb_walker_cache.avg_blocked_cycles::no_targets          nan                       # average number of cycles each access was blocked
system.cpu.itb_walker_cache.blocked::no_mshrs            0                       # number of cycles access was blocked
system.cpu.itb_walker_cache.blocked::no_targets            0                       # number of cycles access was blocked
system.cpu.itb_walker_cache.blocked_cycles::no_mshrs            0                       # number of cycles access was blocked
system.cpu.itb_walker_cache.blocked_cycles::no_targets            0                       # number of cycles access was blocked
system.cpu.itb_walker_cache.demand_accesses::.switch_cpus.itb.walker          358                       # number of demand (read+write) accesses
system.cpu.itb_walker_cache.demand_accesses::total          358                       # number of demand (read+write) accesses
system.cpu.itb_walker_cache.demand_avg_miss_latency::.switch_cpus.itb.walker 60700.617284                       # average overall miss latency
system.cpu.itb_walker_cache.demand_avg_miss_latency::total 60700.617284                       # average overall miss latency
system.cpu.itb_walker_cache.demand_avg_mshr_miss_latency::.switch_cpus.itb.walker 60200.617284                       # average overall mshr miss latency
system.cpu.itb_walker_cache.demand_avg_mshr_miss_latency::total 60200.617284                       # average overall mshr miss latency
system.cpu.itb_walker_cache.demand_hits::.switch_cpus.itb.walker          277                       # number of demand (read+write) hits
system.cpu.itb_walker_cache.demand_hits::total          277                       # number of demand (read+write) hits
system.cpu.itb_walker_cache.demand_miss_latency::.switch_cpus.itb.walker      4916750                       # number of demand (read+write) miss cycles
system.cpu.itb_walker_cache.demand_miss_latency::total      4916750                       # number of demand (read+write) miss cycles
system.cpu.itb_walker_cache.demand_miss_rate::.switch_cpus.itb.walker     0.226257                       # miss rate for demand accesses
system.cpu.itb_walker_cache.demand_miss_rate::total     0.226257                       # miss rate for demand accesses
system.cpu.itb_walker_cache.demand_misses::.switch_cpus.itb.walker           81                       # number of demand (read+write) misses
system.cpu.itb_walker_cache.demand_misses::total           81                       # number of demand (read+write) misses
system.cpu.itb_walker_cache.demand_mshr_miss_latency::.switch_cpus.itb.walker      4876250                       # number of demand (read+write) MSHR miss cycles
system.cpu.itb_walker_cache.demand_mshr_miss_latency::total      4876250                       # number of demand (read+write) MSHR miss cycles
system.cpu.itb_walker_cache.demand_mshr_miss_rate::.switch_cpus.itb.walker     0.226257                       # mshr miss rate for demand accesses
system.cpu.itb_walker_cache.demand_mshr_miss_rate::total     0.226257                       # mshr miss rate for demand accesses
system.cpu.itb_walker_cache.demand_mshr_misses::.switch_cpus.itb.walker           81                       # number of demand (read+write) MSHR misses
system.cpu.itb_walker_cache.demand_mshr_misses::total           81                       # number of demand (read+write) MSHR misses
system.cpu.itb_walker_cache.overall_accesses::.switch_cpus.itb.walker          358                       # number of overall (read+write) accesses
system.cpu.itb_walker_cache.overall_accesses::total          358                       # number of overall (read+write) accesses
system.cpu.itb_walker_cache.overall_avg_miss_latency::.switch_cpus.itb.walker 60700.617284                       # average overall miss latency
system.cpu.itb_walker_cache.overall_avg_miss_latency::total 60700.617284                       # average overall miss latency
system.cpu.itb_walker_cache.overall_avg_mshr_miss_latency::.switch_cpus.itb.walker 60200.617284                       # average overall mshr miss latency
system.cpu.itb_walker_cache.overall_avg_mshr_miss_latency::total 60200.617284                       # average overall mshr miss latency
system.cpu.itb_walker_cache.overall_hits::.switch_cpus.itb.walker          277                       # number of overall hits
system.cpu.itb_walker_cache.overall_hits::total          277                       # number of overall hits
system.cpu.itb_walker_cache.overall_miss_latency::.switch_cpus.itb.walker      4916750                       # number of overall miss cycles
system.cpu.itb_walker_cache.overall_miss_latency::total      4916750                       # number of overall miss cycles
system.cpu.itb_walker_cache.overall_miss_rate::.switch_cpus.itb.walker     0.226257                       # miss rate for overall accesses
system.cpu.itb_walker_cache.overall_miss_rate::total     0.226257                       # miss rate for overall accesses
system.cpu.itb_walker_cache.overall_misses::.switch_cpus.itb.walker           81                       # number of overall misses
system.cpu.itb_walker_cache.overall_misses::total           81                       # number of overall misses
system.cpu.itb_walker_cache.overall_mshr_miss_latency::.switch_cpus.itb.walker      4876250                       # number of overall MSHR miss cycles
system.cpu.itb_walker_cache.overall_mshr_miss_latency::total      4876250                       # number of overall MSHR miss cycles
system.cpu.itb_walker_cache.overall_mshr_miss_rate::.switch_cpus.itb.walker     0.226257                       # mshr miss rate for overall accesses
system.cpu.itb_walker_cache.overall_mshr_miss_rate::total     0.226257                       # mshr miss rate for overall accesses
system.cpu.itb_walker_cache.overall_mshr_misses::.switch_cpus.itb.walker           81                       # number of overall MSHR misses
system.cpu.itb_walker_cache.overall_mshr_misses::total           81                       # number of overall MSHR misses
system.cpu.itb_walker_cache.replacements           65                       # number of replacements
system.cpu.itb_walker_cache.tags.age_task_id_blocks_1025::4           16                       # Occupied blocks per task id
system.cpu.itb_walker_cache.tags.avg_refs     4.753846                       # Average number of references to valid blocks.
system.cpu.itb_walker_cache.tags.data_accesses          797                       # Number of data accesses
system.cpu.itb_walker_cache.tags.occ_blocks::.switch_cpus.itb.walker    13.499245                       # Average occupied blocks per requestor
system.cpu.itb_walker_cache.tags.occ_percent::.switch_cpus.itb.walker     0.843703                       # Average percentage of cache occupancy
system.cpu.itb_walker_cache.tags.occ_percent::total     0.843703                       # Average percentage of cache occupancy
system.cpu.itb_walker_cache.tags.occ_task_id_blocks::1025           16                       # Occupied blocks per task id
system.cpu.itb_walker_cache.tags.occ_task_id_percent::1025            1                       # Percentage of cache occupancy per task id
system.cpu.itb_walker_cache.tags.sampled_refs           65                       # Sample count of references to valid blocks.
system.cpu.itb_walker_cache.tags.tag_accesses          797                       # Number of tag accesses
system.cpu.itb_walker_cache.tags.tagsinuse    13.499245                       # Cycle average of tags in use
system.cpu.itb_walker_cache.tags.total_refs          309                       # Total number of references to valid blocks.
system.cpu.itb_walker_cache.tags.warmup_cycle 807268655327000                       # Cycle when the warmup percentage was hit.
system.cpu.itb_walker_cache.tlbTagged.rdAccesses            0                       # TLB accesses on read requests
system.cpu.itb_walker_cache.tlbTagged.rdMisses            0                       # TLB misses on read requests
system.cpu.itb_walker_cache.tlbTagged.wrAccesses            0                       # TLB accesses on write requests
system.cpu.itb_walker_cache.tlbTagged.wrMisses            0                       # TLB misses on write requests
system.cpu.kern.inst.arm                            0                       # number of arm instructions executed
system.cpu.kern.inst.quiesce                        0                       # number of quiesce instructions executed
system.cpu.l2cache.CleanEvict_mshr_miss_rate::.writebacks          inf                       # mshr miss rate for CleanEvict accesses
system.cpu.l2cache.CleanEvict_mshr_miss_rate::total          inf                       # mshr miss rate for CleanEvict accesses
system.cpu.l2cache.CleanEvict_mshr_misses::.writebacks         1157                       # number of CleanEvict MSHR misses
system.cpu.l2cache.CleanEvict_mshr_misses::total         1157                       # number of CleanEvict MSHR misses
system.cpu.l2cache.DataMeta::0                      0                       # Distribution of access
system.cpu.l2cache.DataMeta::1                      0                       # Distribution of access
system.cpu.l2cache.DataMeta::2                      0                       # Distribution of access
system.cpu.l2cache.DataMeta::3                      0                       # Distribution of access
system.cpu.l2cache.HardPFReq_avg_mshr_miss_latency::.cpu.l2cache.prefetcher 85585.815208                       # average HardPFReq mshr miss latency
system.cpu.l2cache.HardPFReq_avg_mshr_miss_latency::total 85585.815208                       # average HardPFReq mshr miss latency
system.cpu.l2cache.HardPFReq_mshr_miss_latency::.cpu.l2cache.prefetcher 246870657837                       # number of HardPFReq MSHR miss cycles
system.cpu.l2cache.HardPFReq_mshr_miss_latency::total 246870657837                       # number of HardPFReq MSHR miss cycles
system.cpu.l2cache.HardPFReq_mshr_miss_rate::.cpu.l2cache.prefetcher          inf                       # mshr miss rate for HardPFReq accesses
system.cpu.l2cache.HardPFReq_mshr_miss_rate::total          inf                       # mshr miss rate for HardPFReq accesses
system.cpu.l2cache.HardPFReq_mshr_misses::.cpu.l2cache.prefetcher      2884481                       # number of HardPFReq MSHR misses
system.cpu.l2cache.HardPFReq_mshr_misses::total      2884481                       # number of HardPFReq MSHR misses
system.cpu.l2cache.ReadCleanReq_accesses::.switch_cpus.inst        10598                       # number of ReadCleanReq accesses(hits+misses)
system.cpu.l2cache.ReadCleanReq_accesses::total        10598                       # number of ReadCleanReq accesses(hits+misses)
system.cpu.l2cache.ReadCleanReq_avg_miss_latency::.switch_cpus.inst 89393.654193                       # average ReadCleanReq miss latency
system.cpu.l2cache.ReadCleanReq_avg_miss_latency::total 89393.654193                       # average ReadCleanReq miss latency
system.cpu.l2cache.ReadCleanReq_avg_mshr_miss_latency::.switch_cpus.inst 91796.923260                       # average ReadCleanReq mshr miss latency
system.cpu.l2cache.ReadCleanReq_avg_mshr_miss_latency::total 91796.923260                       # average ReadCleanReq mshr miss latency
system.cpu.l2cache.ReadCleanReq_hits::.switch_cpus.inst         6162                       # number of ReadCleanReq hits
system.cpu.l2cache.ReadCleanReq_hits::total         6162                       # number of ReadCleanReq hits
system.cpu.l2cache.ReadCleanReq_miss_latency::.switch_cpus.inst    396550250                       # number of ReadCleanReq miss cycles
system.cpu.l2cache.ReadCleanReq_miss_latency::total    396550250                       # number of ReadCleanReq miss cycles
system.cpu.l2cache.ReadCleanReq_miss_rate::.switch_cpus.inst     0.418570                       # miss rate for ReadCleanReq accesses
system.cpu.l2cache.ReadCleanReq_miss_rate::total     0.418570                       # miss rate for ReadCleanReq accesses
system.cpu.l2cache.ReadCleanReq_misses::.switch_cpus.inst         4436                       # number of ReadCleanReq misses
system.cpu.l2cache.ReadCleanReq_misses::total         4436                       # number of ReadCleanReq misses
system.cpu.l2cache.ReadCleanReq_mshr_hits::.switch_cpus.inst          227                       # number of ReadCleanReq MSHR hits
system.cpu.l2cache.ReadCleanReq_mshr_hits::total          227                       # number of ReadCleanReq MSHR hits
system.cpu.l2cache.ReadCleanReq_mshr_miss_latency::.switch_cpus.inst    386373250                       # number of ReadCleanReq MSHR miss cycles
system.cpu.l2cache.ReadCleanReq_mshr_miss_latency::total    386373250                       # number of ReadCleanReq MSHR miss cycles
system.cpu.l2cache.ReadCleanReq_mshr_miss_rate::.switch_cpus.inst     0.397150                       # mshr miss rate for ReadCleanReq accesses
system.cpu.l2cache.ReadCleanReq_mshr_miss_rate::total     0.397150                       # mshr miss rate for ReadCleanReq accesses
system.cpu.l2cache.ReadCleanReq_mshr_misses::.switch_cpus.inst         4209                       # number of ReadCleanReq MSHR misses
system.cpu.l2cache.ReadCleanReq_mshr_misses::total         4209                       # number of ReadCleanReq MSHR misses
system.cpu.l2cache.ReadExReq_accesses::.switch_cpus.data       907526                       # number of ReadExReq accesses(hits+misses)
system.cpu.l2cache.ReadExReq_accesses::total       907526                       # number of ReadExReq accesses(hits+misses)
system.cpu.l2cache.ReadExReq_avg_miss_latency::.switch_cpus.data 56205.116931                       # average ReadExReq miss latency
system.cpu.l2cache.ReadExReq_avg_miss_latency::total 56205.116931                       # average ReadExReq miss latency
system.cpu.l2cache.ReadExReq_avg_mshr_miss_latency::.switch_cpus.data 113646.051227                       # average ReadExReq mshr miss latency
system.cpu.l2cache.ReadExReq_avg_mshr_miss_latency::total 113646.051227                       # average ReadExReq mshr miss latency
system.cpu.l2cache.ReadExReq_hits::.switch_cpus.data       723871                       # number of ReadExReq hits
system.cpu.l2cache.ReadExReq_hits::total       723871                       # number of ReadExReq hits
system.cpu.l2cache.ReadExReq_miss_latency::.switch_cpus.data  10322350750                       # number of ReadExReq miss cycles
system.cpu.l2cache.ReadExReq_miss_latency::total  10322350750                       # number of ReadExReq miss cycles
system.cpu.l2cache.ReadExReq_miss_rate::.switch_cpus.data     0.202369                       # miss rate for ReadExReq accesses
system.cpu.l2cache.ReadExReq_miss_rate::total     0.202369                       # miss rate for ReadExReq accesses
system.cpu.l2cache.ReadExReq_misses::.switch_cpus.data       183655                       # number of ReadExReq misses
system.cpu.l2cache.ReadExReq_misses::total       183655                       # number of ReadExReq misses
system.cpu.l2cache.ReadExReq_mshr_hits::.switch_cpus.data       132120                       # number of ReadExReq MSHR hits
system.cpu.l2cache.ReadExReq_mshr_hits::total       132120                       # number of ReadExReq MSHR hits
system.cpu.l2cache.ReadExReq_mshr_miss_latency::.switch_cpus.data   5856749250                       # number of ReadExReq MSHR miss cycles
system.cpu.l2cache.ReadExReq_mshr_miss_latency::total   5856749250                       # number of ReadExReq MSHR miss cycles
system.cpu.l2cache.ReadExReq_mshr_miss_rate::.switch_cpus.data     0.056786                       # mshr miss rate for ReadExReq accesses
system.cpu.l2cache.ReadExReq_mshr_miss_rate::total     0.056786                       # mshr miss rate for ReadExReq accesses
system.cpu.l2cache.ReadExReq_mshr_misses::.switch_cpus.data        51535                       # number of ReadExReq MSHR misses
system.cpu.l2cache.ReadExReq_mshr_misses::total        51535                       # number of ReadExReq MSHR misses
system.cpu.l2cache.ReadSharedReq_accesses::.cpu.dcache.prefetcher      2937323                       # number of ReadSharedReq accesses(hits+misses)
system.cpu.l2cache.ReadSharedReq_accesses::.switch_cpus.dtb.walker         4673                       # number of ReadSharedReq accesses(hits+misses)
system.cpu.l2cache.ReadSharedReq_accesses::.switch_cpus.itb.walker           81                       # number of ReadSharedReq accesses(hits+misses)
system.cpu.l2cache.ReadSharedReq_accesses::.switch_cpus.data       201918                       # number of ReadSharedReq accesses(hits+misses)
system.cpu.l2cache.ReadSharedReq_accesses::total      3143995                       # number of ReadSharedReq accesses(hits+misses)
system.cpu.l2cache.ReadSharedReq_avg_miss_latency::.cpu.dcache.prefetcher 59424.590268                       # average ReadSharedReq miss latency
system.cpu.l2cache.ReadSharedReq_avg_miss_latency::.switch_cpus.dtb.walker 82843.171296                       # average ReadSharedReq miss latency
system.cpu.l2cache.ReadSharedReq_avg_miss_latency::.switch_cpus.itb.walker 106255.681818                       # average ReadSharedReq miss latency
system.cpu.l2cache.ReadSharedReq_avg_miss_latency::.switch_cpus.data 72934.580900                       # average ReadSharedReq miss latency
system.cpu.l2cache.ReadSharedReq_avg_miss_latency::total 59765.573679                       # average ReadSharedReq miss latency
system.cpu.l2cache.ReadSharedReq_avg_mshr_miss_latency::.cpu.dcache.prefetcher 43275.777377                       # average ReadSharedReq mshr miss latency
system.cpu.l2cache.ReadSharedReq_avg_mshr_miss_latency::.switch_cpus.dtb.walker 82923.522596                       # average ReadSharedReq mshr miss latency
system.cpu.l2cache.ReadSharedReq_avg_mshr_miss_latency::.switch_cpus.itb.walker 106255.681818                       # average ReadSharedReq mshr miss latency
system.cpu.l2cache.ReadSharedReq_avg_mshr_miss_latency::.switch_cpus.data 117920.720478                       # average ReadSharedReq mshr miss latency
system.cpu.l2cache.ReadSharedReq_avg_mshr_miss_latency::total 45077.729557                       # average ReadSharedReq mshr miss latency
system.cpu.l2cache.ReadSharedReq_hits::.cpu.dcache.prefetcher       639377                       # number of ReadSharedReq hits
system.cpu.l2cache.ReadSharedReq_hits::.switch_cpus.dtb.walker         3809                       # number of ReadSharedReq hits
system.cpu.l2cache.ReadSharedReq_hits::.switch_cpus.itb.walker           37                       # number of ReadSharedReq hits
system.cpu.l2cache.ReadSharedReq_hits::.switch_cpus.data       144087                       # number of ReadSharedReq hits
system.cpu.l2cache.ReadSharedReq_hits::total       787310                       # number of ReadSharedReq hits
system.cpu.l2cache.ReadSharedReq_miss_latency::.cpu.dcache.prefetcher 136554499507                       # number of ReadSharedReq miss cycles
system.cpu.l2cache.ReadSharedReq_miss_latency::.switch_cpus.dtb.walker     71576500                       # number of ReadSharedReq miss cycles
system.cpu.l2cache.ReadSharedReq_miss_latency::.switch_cpus.itb.walker      4675250                       # number of ReadSharedReq miss cycles
system.cpu.l2cache.ReadSharedReq_miss_latency::.switch_cpus.data   4217879748                       # number of ReadSharedReq miss cycles
system.cpu.l2cache.ReadSharedReq_miss_latency::total 140848631005                       # number of ReadSharedReq miss cycles
system.cpu.l2cache.ReadSharedReq_miss_rate::.cpu.dcache.prefetcher     0.782327                       # miss rate for ReadSharedReq accesses
system.cpu.l2cache.ReadSharedReq_miss_rate::.switch_cpus.dtb.walker     0.184892                       # miss rate for ReadSharedReq accesses
system.cpu.l2cache.ReadSharedReq_miss_rate::.switch_cpus.itb.walker     0.543210                       # miss rate for ReadSharedReq accesses
system.cpu.l2cache.ReadSharedReq_miss_rate::.switch_cpus.data     0.286408                       # miss rate for ReadSharedReq accesses
system.cpu.l2cache.ReadSharedReq_miss_rate::total     0.749583                       # miss rate for ReadSharedReq accesses
system.cpu.l2cache.ReadSharedReq_misses::.cpu.dcache.prefetcher      2297946                       # number of ReadSharedReq misses
system.cpu.l2cache.ReadSharedReq_misses::.switch_cpus.dtb.walker          864                       # number of ReadSharedReq misses
system.cpu.l2cache.ReadSharedReq_misses::.switch_cpus.itb.walker           44                       # number of ReadSharedReq misses
system.cpu.l2cache.ReadSharedReq_misses::.switch_cpus.data        57831                       # number of ReadSharedReq misses
system.cpu.l2cache.ReadSharedReq_misses::total      2356685                       # number of ReadSharedReq misses
system.cpu.l2cache.ReadSharedReq_mshr_hits::.cpu.dcache.prefetcher      1195557                       # number of ReadSharedReq MSHR hits
system.cpu.l2cache.ReadSharedReq_mshr_hits::.switch_cpus.dtb.walker            1                       # number of ReadSharedReq MSHR hits
system.cpu.l2cache.ReadSharedReq_mshr_hits::.switch_cpus.data        31046                       # number of ReadSharedReq MSHR hits
system.cpu.l2cache.ReadSharedReq_mshr_hits::total      1226604                       # number of ReadSharedReq MSHR hits
system.cpu.l2cache.ReadSharedReq_mshr_miss_latency::.cpu.dcache.prefetcher  47706740947                       # number of ReadSharedReq MSHR miss cycles
system.cpu.l2cache.ReadSharedReq_mshr_miss_latency::.switch_cpus.dtb.walker     71563000                       # number of ReadSharedReq MSHR miss cycles
system.cpu.l2cache.ReadSharedReq_mshr_miss_latency::.switch_cpus.itb.walker      4675250                       # number of ReadSharedReq MSHR miss cycles
system.cpu.l2cache.ReadSharedReq_mshr_miss_latency::.switch_cpus.data   3158506498                       # number of ReadSharedReq MSHR miss cycles
system.cpu.l2cache.ReadSharedReq_mshr_miss_latency::total  50941485695                       # number of ReadSharedReq MSHR miss cycles
system.cpu.l2cache.ReadSharedReq_mshr_miss_rate::.cpu.dcache.prefetcher     0.375304                       # mshr miss rate for ReadSharedReq accesses
system.cpu.l2cache.ReadSharedReq_mshr_miss_rate::.switch_cpus.dtb.walker     0.184678                       # mshr miss rate for ReadSharedReq accesses
system.cpu.l2cache.ReadSharedReq_mshr_miss_rate::.switch_cpus.itb.walker     0.543210                       # mshr miss rate for ReadSharedReq accesses
system.cpu.l2cache.ReadSharedReq_mshr_miss_rate::.switch_cpus.data     0.132653                       # mshr miss rate for ReadSharedReq accesses
system.cpu.l2cache.ReadSharedReq_mshr_miss_rate::total     0.359441                       # mshr miss rate for ReadSharedReq accesses
system.cpu.l2cache.ReadSharedReq_mshr_misses::.cpu.dcache.prefetcher      1102389                       # number of ReadSharedReq MSHR misses
system.cpu.l2cache.ReadSharedReq_mshr_misses::.switch_cpus.dtb.walker          863                       # number of ReadSharedReq MSHR misses
system.cpu.l2cache.ReadSharedReq_mshr_misses::.switch_cpus.itb.walker           44                       # number of ReadSharedReq MSHR misses
system.cpu.l2cache.ReadSharedReq_mshr_misses::.switch_cpus.data        26785                       # number of ReadSharedReq MSHR misses
system.cpu.l2cache.ReadSharedReq_mshr_misses::total      1130081                       # number of ReadSharedReq MSHR misses
system.cpu.l2cache.UpgradeReq_accesses::.switch_cpus.data         2473                       # number of UpgradeReq accesses(hits+misses)
system.cpu.l2cache.UpgradeReq_accesses::total         2473                       # number of UpgradeReq accesses(hits+misses)
system.cpu.l2cache.UpgradeReq_avg_miss_latency::.switch_cpus.data 17703.488372                       # average UpgradeReq miss latency
system.cpu.l2cache.UpgradeReq_avg_miss_latency::total 17703.488372                       # average UpgradeReq miss latency
system.cpu.l2cache.UpgradeReq_avg_mshr_miss_latency::.switch_cpus.data 18569.767442                       # average UpgradeReq mshr miss latency
system.cpu.l2cache.UpgradeReq_avg_mshr_miss_latency::total 18569.767442                       # average UpgradeReq mshr miss latency
system.cpu.l2cache.UpgradeReq_hits::.switch_cpus.data         2430                       # number of UpgradeReq hits
system.cpu.l2cache.UpgradeReq_hits::total         2430                       # number of UpgradeReq hits
system.cpu.l2cache.UpgradeReq_miss_latency::.switch_cpus.data       761250                       # number of UpgradeReq miss cycles
system.cpu.l2cache.UpgradeReq_miss_latency::total       761250                       # number of UpgradeReq miss cycles
system.cpu.l2cache.UpgradeReq_miss_rate::.switch_cpus.data     0.017388                       # miss rate for UpgradeReq accesses
system.cpu.l2cache.UpgradeReq_miss_rate::total     0.017388                       # miss rate for UpgradeReq accesses
system.cpu.l2cache.UpgradeReq_misses::.switch_cpus.data           43                       # number of UpgradeReq misses
system.cpu.l2cache.UpgradeReq_misses::total           43                       # number of UpgradeReq misses
system.cpu.l2cache.UpgradeReq_mshr_miss_latency::.switch_cpus.data       798500                       # number of UpgradeReq MSHR miss cycles
system.cpu.l2cache.UpgradeReq_mshr_miss_latency::total       798500                       # number of UpgradeReq MSHR miss cycles
system.cpu.l2cache.UpgradeReq_mshr_miss_rate::.switch_cpus.data     0.017388                       # mshr miss rate for UpgradeReq accesses
system.cpu.l2cache.UpgradeReq_mshr_miss_rate::total     0.017388                       # mshr miss rate for UpgradeReq accesses
system.cpu.l2cache.UpgradeReq_mshr_misses::.switch_cpus.data           43                       # number of UpgradeReq MSHR misses
system.cpu.l2cache.UpgradeReq_mshr_misses::total           43                       # number of UpgradeReq MSHR misses
system.cpu.l2cache.WriteReq_mshr_uncacheable::.switch_cpus.data           77                       # number of WriteReq MSHR uncacheable
system.cpu.l2cache.WriteReq_mshr_uncacheable::total           77                       # number of WriteReq MSHR uncacheable
system.cpu.l2cache.WritebackClean_accesses::.writebacks        10086                       # number of WritebackClean accesses(hits+misses)
system.cpu.l2cache.WritebackClean_accesses::total        10086                       # number of WritebackClean accesses(hits+misses)
system.cpu.l2cache.WritebackClean_hits::.writebacks        10086                       # number of WritebackClean hits
system.cpu.l2cache.WritebackClean_hits::total        10086                       # number of WritebackClean hits
system.cpu.l2cache.WritebackDirty_accesses::.writebacks      3219939                       # number of WritebackDirty accesses(hits+misses)
system.cpu.l2cache.WritebackDirty_accesses::total      3219939                       # number of WritebackDirty accesses(hits+misses)
system.cpu.l2cache.WritebackDirty_hits::.writebacks      3219939                       # number of WritebackDirty hits
system.cpu.l2cache.WritebackDirty_hits::total      3219939                       # number of WritebackDirty hits
system.cpu.l2cache.avg_blocked_cycles::no_mshrs    43.307692                       # average number of cycles each access was blocked
system.cpu.l2cache.avg_blocked_cycles::no_targets          nan                       # average number of cycles each access was blocked
system.cpu.l2cache.blocked::no_mshrs               13                       # number of cycles access was blocked
system.cpu.l2cache.blocked::no_targets              0                       # number of cycles access was blocked
system.cpu.l2cache.blocked_cycles::no_mshrs          563                       # number of cycles access was blocked
system.cpu.l2cache.blocked_cycles::no_targets            0                       # number of cycles access was blocked
system.cpu.l2cache.demand_accesses::.cpu.dcache.prefetcher      2937323                       # number of demand (read+write) accesses
system.cpu.l2cache.demand_accesses::.switch_cpus.dtb.walker         4673                       # number of demand (read+write) accesses
system.cpu.l2cache.demand_accesses::.switch_cpus.itb.walker           81                       # number of demand (read+write) accesses
system.cpu.l2cache.demand_accesses::.switch_cpus.inst        10598                       # number of demand (read+write) accesses
system.cpu.l2cache.demand_accesses::.switch_cpus.data      1109444                       # number of demand (read+write) accesses
system.cpu.l2cache.demand_accesses::total      4062119                       # number of demand (read+write) accesses
system.cpu.l2cache.demand_avg_miss_latency::.cpu.dcache.prefetcher 59424.590268                       # average overall miss latency
system.cpu.l2cache.demand_avg_miss_latency::.switch_cpus.dtb.walker 82843.171296                       # average overall miss latency
system.cpu.l2cache.demand_avg_miss_latency::.switch_cpus.itb.walker 106255.681818                       # average overall miss latency
system.cpu.l2cache.demand_avg_miss_latency::.switch_cpus.inst 89393.654193                       # average overall miss latency
system.cpu.l2cache.demand_avg_miss_latency::.switch_cpus.data 60211.484301                       # average overall miss latency
system.cpu.l2cache.demand_avg_miss_latency::total 59560.264638                       # average overall miss latency
system.cpu.l2cache.demand_avg_mshr_miss_latency::.cpu.dcache.prefetcher 43275.777377                       # average overall mshr miss latency
system.cpu.l2cache.demand_avg_mshr_miss_latency::.switch_cpus.dtb.walker 82923.522596                       # average overall mshr miss latency
system.cpu.l2cache.demand_avg_mshr_miss_latency::.switch_cpus.itb.walker 106255.681818                       # average overall mshr miss latency
system.cpu.l2cache.demand_avg_mshr_miss_latency::.switch_cpus.inst 91796.923260                       # average overall mshr miss latency
system.cpu.l2cache.demand_avg_mshr_miss_latency::.switch_cpus.data 115107.964096                       # average overall mshr miss latency
system.cpu.l2cache.demand_avg_mshr_miss_latency::total 48223.480020                       # average overall mshr miss latency
system.cpu.l2cache.demand_hits::.cpu.dcache.prefetcher       639377                       # number of demand (read+write) hits
system.cpu.l2cache.demand_hits::.switch_cpus.dtb.walker         3809                       # number of demand (read+write) hits
system.cpu.l2cache.demand_hits::.switch_cpus.itb.walker           37                       # number of demand (read+write) hits
[...]
system.switch_cpus.iq.fu_full::MemWrite             0                       # attempts to use FU when none available
system.switch_cpus.iq.fu_full::FloatMemRead            0                       # attempts to use FU when none available
system.switch_cpus.iq.fu_full::FloatMemWrite            0                       # attempts to use FU when none available
system.switch_cpus.iq.fu_full::IprAccess            0                       # attempts to use FU when none available
system.switch_cpus.iq.fu_full::InstPrefetch            0                       # attempts to use FU when none available
system.switch_cpus.iq.int_alu_accesses         579600                       # Number of integer alu accesses
system.switch_cpus.iq.int_inst_queue_reads      1609146                       # Number of integer instruction queue reads
system.switch_cpus.iq.int_inst_queue_wakeup_accesses       579600                       # Number of integer instruction queue wakeup accesses
system.switch_cpus.iq.int_inst_queue_writes       579600                       # Number of integer instruction queue writes
system.switch_cpus.iq.iqInstsAdded             579600                       # Number of instructions added to the IQ (excludes non-spec)
system.switch_cpus.iq.iqInstsIssued            579600                       # Number of instructions issued
system.switch_cpus.iq.issued_per_cycle::samples       449946                       # Number of insts issued each cycle
system.switch_cpus.iq.issued_per_cycle::mean     1.288155                       # Number of insts issued each cycle
system.switch_cpus.iq.issued_per_cycle::stdev     1.752278                       # Number of insts issued each cycle
system.switch_cpus.iq.issued_per_cycle::underflows            0      0.00%      0.00% # Number of insts issued each cycle
system.switch_cpus.iq.issued_per_cycle::0       242472     53.89%     53.89% # Number of insts issued each cycle
system.switch_cpus.iq.issued_per_cycle::1        53624     11.92%     65.81% # Number of insts issued each cycle
system.switch_cpus.iq.issued_per_cycle::2        60219     13.38%     79.19% # Number of insts issued each cycle
system.switch_cpus.iq.issued_per_cycle::3        16961      3.77%     82.96% # Number of insts issued each cycle
system.switch_cpus.iq.issued_per_cycle::4        39953      8.88%     91.84% # Number of insts issued each cycle
system.switch_cpus.iq.issued_per_cycle::5        25459      5.66%     97.50% # Number of insts issued each cycle
system.switch_cpus.iq.issued_per_cycle::6        11258      2.50%    100.00% # Number of insts issued each cycle
system.switch_cpus.iq.issued_per_cycle::7            0      0.00%    100.00% # Number of insts issued each cycle
system.switch_cpus.iq.issued_per_cycle::8            0      0.00%    100.00% # Number of insts issued each cycle
system.switch_cpus.iq.issued_per_cycle::overflows            0      0.00%    100.00% # Number of insts issued each cycle
system.switch_cpus.iq.issued_per_cycle::min_value            0                       # Number of insts issued each cycle
system.switch_cpus.iq.issued_per_cycle::max_value            6                       # Number of insts issued each cycle
system.switch_cpus.iq.issued_per_cycle::total       449946                       # Number of insts issued each cycle
system.switch_cpus.iq.rate                   1.288155                       # Inst issue rate
system.switch_cpus.iq.vec_alu_accesses              0                       # Number of vector alu accesses
system.switch_cpus.iq.vec_inst_queue_reads            0                       # Number of vector instruction queue reads
system.switch_cpus.iq.vec_inst_queue_wakeup_accesses            0                       # Number of vector instruction queue wakeup accesses
system.switch_cpus.iq.vec_inst_queue_writes            0                       # Number of vector instruction queue writes
system.switch_cpus.itb.rdAccesses                   0                       # TLB accesses on read requests
system.switch_cpus.itb.rdMisses                     0                       # TLB misses on read requests
system.switch_cpus.itb.wrAccesses               31050                       # TLB accesses on write requests
system.switch_cpus.itb.wrMisses                     0                       # TLB misses on write requests
system.switch_cpus.kern.inst.arm                    0                       # number of arm instructions executed
system.switch_cpus.kern.inst.quiesce                0                       # number of quiesce instructions executed
system.switch_cpus.memDep0.conflictingLoads            0                       # Number of conflicting loads.
system.switch_cpus.memDep0.conflictingStores            0                       # Number of conflicting stores.
system.switch_cpus.memDep0.insertedLoads        62100                       # Number of loads inserted to the mem dependence unit.
system.switch_cpus.memDep0.insertedStores        93150                       # Number of stores inserted to the mem dependence unit.
system.switch_cpus.misc_regfile_reads          300150                       # number of misc regfile reads
system.switch_cpus.numCycles                   449946                       # number of cpu cycles simulated
system.switch_cpus.numWorkItemsCompleted            0                       # number of work items this cpu completed
system.switch_cpus.numWorkItemsStarted              0                       # number of work items this cpu started
system.switch_cpus.rename.CommittedMaps        621000                       # Number of HB maps that are committed
system.switch_cpus.rename.IdleCycles            46575                       # Number of cycles rename is idle
system.switch_cpus.rename.RenameLookups       1449000                       # Number of register rename lookups that rename has made
system.switch_cpus.rename.RenamedInsts         579600                       # Number of instructions processed by rename
system.switch_cpus.rename.RenamedOperands       621000                       # Number of destination operands rename has renamed
system.switch_cpus.rename.RunCycles             46575                       # Number of cycles rename is running
system.switch_cpus.rename.SQFullEvents         340779                       # Number of times rename has blocked due to SQ full
system.switch_cpus.rename.UnblockCycles        356796                       # Number of cycles rename is unblocking
system.switch_cpus.rename.int_rename_lookups       755550                       # Number of integer rename lookups
system.switch_cpus.rename.serializeStallCycles            0                       # count of cycles rename stalled for serializing inst
system.switch_cpus.rename.serializingInsts            0                       # count of serializing insts renamed
system.switch_cpus.rename.skidInsts            403650                       # count of insts added to the skid buffer
system.switch_cpus.rename.tempSerializingInsts            0                       # count of temporary serializing insts renamed
system.switch_cpus.rob.rob_reads              1029546                       # The number of ROB reads
system.switch_cpus.rob.rob_writes             1159200                       # The number of ROB writes
system.tol3bus.pkt_count_system.cpu.l2cache.mem_side::system.l3.cpu_side        11651                       # Packet count per connected master and slave (bytes)
system.tol3bus.pkt_size_system.cpu.l2cache.mem_side::system.l3.cpu_side       497024                       # Cumulative packet size per connected master and slave (bytes)
system.tol3bus.reqLayer0.occupancy            3887968                       # Layer occupancy (ticks)
system.tol3bus.reqLayer0.utilization              3.5                       # Layer utilization (%)
system.tol3bus.respLayer0.occupancy           3293967                       # Layer occupancy (ticks)
system.tol3bus.respLayer0.utilization             2.9                       # Layer utilization (%)
system.tol3bus.snoopTraffic                    247360                       # Total snoop traffic (bytes)
system.tol3bus.snoop_fanout::samples            12166                       # Request fanout histogram
system.tol3bus.snoop_fanout::mean            0.000986                       # Request fanout histogram
system.tol3bus.snoop_fanout::stdev           0.031392                       # Request fanout histogram
system.tol3bus.snoop_fanout::underflows             0      0.00%      0.00% # Request fanout histogram
system.tol3bus.snoop_fanout::0                  12154     99.90%     99.90% # Request fanout histogram
system.tol3bus.snoop_fanout::1                     12      0.10%    100.00% # Request fanout histogram
system.tol3bus.snoop_fanout::overflows              0      0.00%    100.00% # Request fanout histogram
system.tol3bus.snoop_fanout::min_value              0                       # Request fanout histogram
system.tol3bus.snoop_fanout::max_value              1                       # Request fanout histogram
system.tol3bus.snoop_fanout::total              12166                       # Request fanout histogram
system.tol3bus.snoop_filter.hit_multi_requests            0                       # Number of requests hitting in the snoop filter with multiple (>1) holders of the requested data.
system.tol3bus.snoop_filter.hit_multi_snoops            0                       # Number of snoops hitting in the snoop filter with multiple (>1) holders of the requested data.
system.tol3bus.snoop_filter.hit_single_requests         3883                       # Number of requests hitting in the snoop filter with a single holder of the requested data.
system.tol3bus.snoop_filter.hit_single_snoops           12                       # Number of snoops hitting in the snoop filter with a single holder of the requested data.
system.tol3bus.snoop_filter.tot_requests         7768                       # Total number of requests made to the snoop filter.
system.tol3bus.snoop_filter.tot_snoops             12                       # Total number of snoops made to the snoop filter.
system.tol3bus.snoops                            8281                       # Total snoops (count)
system.tol3bus.trans_dist::ReadResp              3823                       # Transaction distribution
system.tol3bus.trans_dist::WritebackDirty         7748                       # Transaction distribution
system.tol3bus.trans_dist::CleanEvict              14                       # Transaction distribution
system.tol3bus.trans_dist::HardPFReq             4402                       # Transaction distribution
system.tol3bus.trans_dist::ReadExReq               60                       # Transaction distribution
system.tol3bus.trans_dist::ReadExResp              60                       # Transaction distribution
system.tol3bus.trans_dist::ReadSharedReq         3825                       # Transaction distribution
system.bridge.pwrStateResidencyTicks::UNDEFINED    112486750                       # Cumulative time (in ticks) in various power states
system.voltage_domain.voltage                       1                       # Voltage in Volts
system.membus.pwrStateResidencyTicks::UNDEFINED    112486750                       # Cumulative time (in ticks) in various power states
system.membus.badaddr_responder.pwrStateResidencyTicks::UNDEFINED    112486750                       # Cumulative time (in ticks) in various power states
system.apicbridge.pwrStateResidencyTicks::UNDEFINED    112486750                       # Cumulative time (in ticks) in various power states
system.tol3bus.pwrStateResidencyTicks::UNDEFINED    112486750                       # Cumulative time (in ticks) in various power states
system.switch_cpus.pwrStateResidencyTicks::OFF    112486750                       # Cumulative time (in ticks) in various power states
system.switch_cpus.dtb.walker.pwrStateResidencyTicks::UNDEFINED    112486750                       # Cumulative time (in ticks) in various power states
system.switch_cpus.itb.walker.pwrStateResidencyTicks::UNDEFINED    112486750                       # Cumulative time (in ticks) in various power states
system.clk_domain.clock                          1000                       # Clock period in ticks
system.pc.fake_com_4.pwrStateResidencyTicks::UNDEFINED    112486750                       # Cumulative time (in ticks) in various power states
system.pc.fake_com_2.pwrStateResidencyTicks::UNDEFINED    112486750                       # Cumulative time (in ticks) in various power states
system.pc.fake_com_3.pwrStateResidencyTicks::UNDEFINED    112486750                       # Cumulative time (in ticks) in various power states
system.pc.south_bridge.io_apic.pwrStateResidencyTicks::UNDEFINED    112486750                       # Cumulative time (in ticks) in various power states
system.pc.south_bridge.pic1.pwrStateResidencyTicks::UNDEFINED    112486750                       # Cumulative time (in ticks) in various power states
system.pc.south_bridge.pic2.pwrStateResidencyTicks::UNDEFINED    112486750                       # Cumulative time (in ticks) in various power states
system.pc.south_bridge.dma1.pwrStateResidencyTicks::UNDEFINED    112486750                       # Cumulative time (in ticks) in various power states
system.pc.south_bridge.speaker.pwrStateResidencyTicks::UNDEFINED    112486750                       # Cumulative time (in ticks) in various power states
system.pc.south_bridge.keyboard.pwrStateResidencyTicks::UNDEFINED    112486750                       # Cumulative time (in ticks) in various power states
system.pc.south_bridge.ide.pwrStateResidencyTicks::UNDEFINED    112486750                       # Cumulative time (in ticks) in various power states
system.pc.south_bridge.pit.pwrStateResidencyTicks::UNDEFINED    112486750                       # Cumulative time (in ticks) in various power states
system.pc.south_bridge.cmos.pwrStateResidencyTicks::UNDEFINED    112486750                       # Cumulative time (in ticks) in various power states
system.pc.i_dont_exist2.pwrStateResidencyTicks::UNDEFINED    112486750                       # Cumulative time (in ticks) in various power states
system.pc.i_dont_exist1.pwrStateResidencyTicks::UNDEFINED    112486750                       # Cumulative time (in ticks) in various power states
system.pc.com_1.pwrStateResidencyTicks::UNDEFINED    112486750                       # Cumulative time (in ticks) in various power states
system.pc.fake_floppy.pwrStateResidencyTicks::UNDEFINED    112486750                       # Cumulative time (in ticks) in various power states
system.pc.behind_pci.pwrStateResidencyTicks::UNDEFINED    112486750                       # Cumulative time (in ticks) in various power states
system.pc.pci_host.pwrStateResidencyTicks::UNDEFINED    112486750                       # Cumulative time (in ticks) in various power states
system.cpu_clk_domain.clock                       250                       # Clock period in ticks
system.iocache.pwrStateResidencyTicks::UNDEFINED    112486750                       # Cumulative time (in ticks) in various power states
system.iocache.tlbTagged.walker.pwrStateResidencyTicks::UNDEFINED    112486750                       # Cumulative time (in ticks) in various power states
system.iocache.tags.pwrStateResidencyTicks::UNDEFINED    112486750                       # Cumulative time (in ticks) in various power states
system.mem_ctrls0.pwrStateResidencyTicks::UNDEFINED    112486750                       # Cumulative time (in ticks) in various power states
system.mem_ctrls1.pwrStateResidencyTicks::UNDEFINED    112486750                       # Cumulative time (in ticks) in various power states
system.l3.pwrStateResidencyTicks::UNDEFINED    112486750                       # Cumulative time (in ticks) in various power states
system.l3.tlbTagged.walker.pwrStateResidencyTicks::UNDEFINED    112486750                       # Cumulative time (in ticks) in various power states
system.l3.prefetcher.pwrStateResidencyTicks::UNDEFINED    112486750                       # Cumulative time (in ticks) in various power states
system.l3.tags.pwrStateResidencyTicks::UNDEFINED    112486750                       # Cumulative time (in ticks) in various power states
system.cpu_voltage_domain.voltage                   1                       # Voltage in Volts
system.iobus.pwrStateResidencyTicks::UNDEFINED    112486750                       # Cumulative time (in ticks) in various power states
system.cpu.pwrStateResidencyTicks::OFF      112486750                       # Cumulative time (in ticks) in various power states
system.cpu.icache.pwrStateResidencyTicks::UNDEFINED    112486750                       # Cumulative time (in ticks) in various power states
system.cpu.icache.tlbTagged.walker.pwrStateResidencyTicks::UNDEFINED    112486750                       # Cumulative time (in ticks) in various power states
system.cpu.icache.tags.pwrStateResidencyTicks::UNDEFINED    112486750                       # Cumulative time (in ticks) in various power states
system.cpu.dtb.walker.pwrStateResidencyTicks::UNDEFINED    112486750                       # Cumulative time (in ticks) in various power states
system.cpu.interrupts.pwrStateResidencyTicks::UNDEFINED    112486750                       # Cumulative time (in ticks) in various power states
system.cpu.interrupts.clk_domain.clock           4000                       # Clock period in ticks
system.cpu.itb_walker_cache.pwrStateResidencyTicks::UNDEFINED    112486750                       # Cumulative time (in ticks) in various power states
system.cpu.itb_walker_cache.tlbTagged.walker.pwrStateResidencyTicks::UNDEFINED    112486750                       # Cumulative time (in ticks) in various power states
system.cpu.itb_walker_cache.tags.pwrStateResidencyTicks::UNDEFINED    112486750                       # Cumulative time (in ticks) in various power states
system.cpu.itb.walker.pwrStateResidencyTicks::UNDEFINED    112486750                       # Cumulative time (in ticks) in various power states
system.cpu.dtb_walker_cache.pwrStateResidencyTicks::UNDEFINED    112486750                       # Cumulative time (in ticks) in various power states
system.cpu.dtb_walker_cache.tlbTagged.walker.pwrStateResidencyTicks::UNDEFINED    112486750                       # Cumulative time (in ticks) in various power states
system.cpu.dtb_walker_cache.tags.pwrStateResidencyTicks::UNDEFINED    112486750                       # Cumulative time (in ticks) in various power states
system.cpu.dcache.pwrStateResidencyTicks::UNDEFINED    112486750                       # Cumulative time (in ticks) in various power states
system.cpu.dcache.tlbTagged.walker.pwrStateResidencyTicks::UNDEFINED    112486750                       # Cumulative time (in ticks) in various power states
system.cpu.dcache.prefetcher.pwrStateResidencyTicks::UNDEFINED    112486750                       # Cumulative time (in ticks) in various power states
system.cpu.dcache.tags.pwrStateResidencyTicks::UNDEFINED    112486750                       # Cumulative time (in ticks) in various power states
system.cpu.l2cache.pwrStateResidencyTicks::UNDEFINED    112486750                       # Cumulative time (in ticks) in various power states
system.cpu.l2cache.tlbTagged.walker.pwrStateResidencyTicks::UNDEFINED    112486750                       # Cumulative time (in ticks) in various power states
system.cpu.l2cache.prefetcher.pwrStateResidencyTicks::UNDEFINED    112486750                       # Cumulative time (in ticks) in various power states
system.cpu.l2cache.tags.pwrStateResidencyTicks::UNDEFINED    112486750                       # Cumulative time (in ticks) in various power states
system.cpu.toL2Bus.pwrStateResidencyTicks::UNDEFINED    112486750                       # Cumulative time (in ticks) in various power states

---------- End Simulation Statistics   ----------
