
---------- Begin Simulation Statistics ----------
final_tick                               807366626578250                       # Number of ticks from beginning of simulation (restored from checkpoints and never reset)
host_inst_rate                                  26528                       # Simulator instruction rate (inst/s)
host_mem_usage                               17067956                       # Number of bytes of host memory used
host_op_rate                                    44129                       # Simulator op (including micro ops) rate (op/s)
host_seconds                                  3769.54                       # Real time elapsed on the host
host_tick_rate                               25990270                       # Simulator tick rate (ticks/s)
sim_freq                                 1000000000000                       # Frequency of simulated ticks
sim_insts                                   100000000                       # Number of instructions simulated
sim_ops                                     166346853                       # Number of ops (including micro ops) simulated
sim_seconds                                  0.097971                       # Number of seconds simulated
sim_ticks                                 97971359000                       # Number of ticks simulated
system.cpu.committedInsts                           0                       # Number of instructions committed
system.cpu.dcache.DataMeta::0                       0                       # Distribution of access
system.cpu.dcache.DataMeta::1                       0                       # Distribution of access
system.cpu.dcache.DataMeta::2                       0                       # Distribution of access
system.cpu.dcache.DataMeta::3                       0                       # Distribution of access
system.cpu.dcache.ReadReq_accesses::.switch_cpus.data     13382266                       # number of ReadReq accesses(hits+misses)
system.cpu.dcache.ReadReq_accesses::total     13382266                       # number of ReadReq accesses(hits+misses)
system.cpu.dcache.ReadReq_avg_miss_latency::.switch_cpus.data 31897.946176                       # average ReadReq miss latency
system.cpu.dcache.ReadReq_avg_miss_latency::total 31897.946176                       # average ReadReq miss latency
system.cpu.dcache.ReadReq_avg_mshr_miss_latency::.switch_cpus.data 29850.725797                       # average ReadReq mshr miss latency
system.cpu.dcache.ReadReq_avg_mshr_miss_latency::total 29850.725797                       # average ReadReq mshr miss latency
system.cpu.dcache.ReadReq_hits::.switch_cpus.data      9977374                       # number of ReadReq hits
system.cpu.dcache.ReadReq_hits::total         9977374                       # number of ReadReq hits
system.cpu.dcache.ReadReq_miss_latency::.switch_cpus.data 108609061750                       # number of ReadReq miss cycles
system.cpu.dcache.ReadReq_miss_latency::total 108609061750                       # number of ReadReq miss cycles
system.cpu.dcache.ReadReq_miss_rate::.switch_cpus.data     0.254433                       # miss rate for ReadReq accesses
system.cpu.dcache.ReadReq_miss_rate::total     0.254433                       # miss rate for ReadReq accesses
system.cpu.dcache.ReadReq_misses::.switch_cpus.data      3404892                       # number of ReadReq misses
system.cpu.dcache.ReadReq_misses::total       3404892                       # number of ReadReq misses
system.cpu.dcache.ReadReq_mshr_hits::.switch_cpus.data      2494651                       # number of ReadReq MSHR hits
system.cpu.dcache.ReadReq_mshr_hits::total      2494651                       # number of ReadReq MSHR hits
system.cpu.dcache.ReadReq_mshr_miss_latency::.switch_cpus.data  27171354500                       # number of ReadReq MSHR miss cycles
system.cpu.dcache.ReadReq_mshr_miss_latency::total  27171354500                       # number of ReadReq MSHR miss cycles
system.cpu.dcache.ReadReq_mshr_miss_rate::.switch_cpus.data     0.068018                       # mshr miss rate for ReadReq accesses
system.cpu.dcache.ReadReq_mshr_miss_rate::total     0.068018                       # mshr miss rate for ReadReq accesses
system.cpu.dcache.ReadReq_mshr_misses::.switch_cpus.data       910241                       # number of ReadReq MSHR misses
system.cpu.dcache.ReadReq_mshr_misses::total       910241                       # number of ReadReq MSHR misses
system.cpu.dcache.SoftPFReq_accesses::.switch_cpus.data           52                       # number of SoftPFReq accesses(hits+misses)
system.cpu.dcache.SoftPFReq_accesses::total           52                       # number of SoftPFReq accesses(hits+misses)
system.cpu.dcache.SoftPFReq_avg_mshr_miss_latency::.switch_cpus.data 94428.571429                       # average SoftPFReq mshr miss latency
system.cpu.dcache.SoftPFReq_avg_mshr_miss_latency::total 94428.571429                       # average SoftPFReq mshr miss latency
system.cpu.dcache.SoftPFReq_hits::.switch_cpus.data           10                       # number of SoftPFReq hits
system.cpu.dcache.SoftPFReq_hits::total            10                       # number of SoftPFReq hits
system.cpu.dcache.SoftPFReq_miss_rate::.switch_cpus.data     0.807692                       # miss rate for SoftPFReq accesses
system.cpu.dcache.SoftPFReq_miss_rate::total     0.807692                       # miss rate for SoftPFReq accesses
system.cpu.dcache.SoftPFReq_misses::.switch_cpus.data           42                       # number of SoftPFReq misses
system.cpu.dcache.SoftPFReq_misses::total           42                       # number of SoftPFReq misses
system.cpu.dcache.SoftPFReq_mshr_miss_latency::.switch_cpus.data      3966000                       # number of SoftPFReq MSHR miss cycles
system.cpu.dcache.SoftPFReq_mshr_miss_latency::total      3966000                       # number of SoftPFReq MSHR miss cycles
system.cpu.dcache.SoftPFReq_mshr_miss_rate::.switch_cpus.data     0.807692                       # mshr miss rate for SoftPFReq accesses
system.cpu.dcache.SoftPFReq_mshr_miss_rate::total     0.807692                       # mshr miss rate for SoftPFReq accesses
system.cpu.dcache.SoftPFReq_mshr_misses::.switch_cpus.data           42                       # number of SoftPFReq MSHR misses
system.cpu.dcache.SoftPFReq_mshr_misses::total           42                       # number of SoftPFReq MSHR misses
system.cpu.dcache.WriteReq_accesses::.switch_cpus.data     37963249                       # number of WriteReq accesses(hits+misses)
system.cpu.dcache.WriteReq_accesses::total     37963249                       # number of WriteReq accesses(hits+misses)
system.cpu.dcache.WriteReq_avg_miss_latency::.switch_cpus.data 18102.103909                       # average WriteReq miss latency
system.cpu.dcache.WriteReq_avg_miss_latency::total 18102.103909                       # average WriteReq miss latency
system.cpu.dcache.WriteReq_avg_mshr_miss_latency::.switch_cpus.data 18114.853982                       # average WriteReq mshr miss latency
system.cpu.dcache.WriteReq_avg_mshr_miss_latency::total 18114.853982                       # average WriteReq mshr miss latency
system.cpu.dcache.WriteReq_hits::.switch_cpus.data     34807956                       # number of WriteReq hits
system.cpu.dcache.WriteReq_hits::total       34807956                       # number of WriteReq hits
system.cpu.dcache.WriteReq_miss_latency::.switch_cpus.data  57117441750                       # number of WriteReq miss cycles
system.cpu.dcache.WriteReq_miss_latency::total  57117441750                       # number of WriteReq miss cycles
system.cpu.dcache.WriteReq_miss_rate::.switch_cpus.data     0.083114                       # miss rate for WriteReq accesses
system.cpu.dcache.WriteReq_miss_rate::total     0.083114                       # miss rate for WriteReq accesses
system.cpu.dcache.WriteReq_misses::.switch_cpus.data      3155293                       # number of WriteReq misses
system.cpu.dcache.WriteReq_misses::total      3155293                       # number of WriteReq misses
system.cpu.dcache.WriteReq_mshr_hits::.switch_cpus.data        32467                       # number of WriteReq MSHR hits
system.cpu.dcache.WriteReq_mshr_hits::total        32467                       # number of WriteReq MSHR hits
system.cpu.dcache.WriteReq_mshr_miss_latency::.switch_cpus.data  56569537000                       # number of WriteReq MSHR miss cycles
system.cpu.dcache.WriteReq_mshr_miss_latency::total  56569537000                       # number of WriteReq MSHR miss cycles
system.cpu.dcache.WriteReq_mshr_miss_rate::.switch_cpus.data     0.082259                       # mshr miss rate for WriteReq accesses
system.cpu.dcache.WriteReq_mshr_miss_rate::total     0.082259                       # mshr miss rate for WriteReq accesses
system.cpu.dcache.WriteReq_mshr_misses::.switch_cpus.data      3122826                       # number of WriteReq MSHR misses
system.cpu.dcache.WriteReq_mshr_misses::total      3122826                       # number of WriteReq MSHR misses
system.cpu.dcache.WriteReq_mshr_uncacheable::.switch_cpus.data           98                       # number of WriteReq MSHR uncacheable
system.cpu.dcache.WriteReq_mshr_uncacheable::total           98                       # number of WriteReq MSHR uncacheable
system.cpu.dcache.avg_blocked_cycles::no_mshrs          nan                       # average number of cycles each access was blocked
system.cpu.dcache.avg_blocked_cycles::no_targets   269.333333                       # average number of cycles each access was blocked
system.cpu.dcache.blocked::no_mshrs                 0                       # number of cycles access was blocked
system.cpu.dcache.blocked::no_targets               6                       # number of cycles access was blocked
system.cpu.dcache.blocked_cycles::no_mshrs            0                       # number of cycles access was blocked
system.cpu.dcache.blocked_cycles::no_targets         1616                       # number of cycles access was blocked
system.cpu.dcache.demand_accesses::.switch_cpus.data     51345515                       # number of demand (read+write) accesses
system.cpu.dcache.demand_accesses::total     51345515                       # number of demand (read+write) accesses
system.cpu.dcache.demand_avg_miss_latency::.switch_cpus.data 25262.474077                       # average overall miss latency
system.cpu.dcache.demand_avg_miss_latency::total 25262.474077                       # average overall miss latency
system.cpu.dcache.demand_avg_mshr_miss_latency::.switch_cpus.data 20763.575587                       # average overall mshr miss latency
system.cpu.dcache.demand_avg_mshr_miss_latency::total 20763.575587                       # average overall mshr miss latency
system.cpu.dcache.demand_hits::.switch_cpus.data     44785330                       # number of demand (read+write) hits
system.cpu.dcache.demand_hits::total         44785330                       # number of demand (read+write) hits
system.cpu.dcache.demand_miss_latency::.switch_cpus.data 165726503500                       # number of demand (read+write) miss cycles
system.cpu.dcache.demand_miss_latency::total 165726503500                       # number of demand (read+write) miss cycles
system.cpu.dcache.demand_miss_rate::.switch_cpus.data     0.127765                       # miss rate for demand accesses
system.cpu.dcache.demand_miss_rate::total     0.127765                       # miss rate for demand accesses
system.cpu.dcache.demand_misses::.switch_cpus.data      6560185                       # number of demand (read+write) misses
system.cpu.dcache.demand_misses::total        6560185                       # number of demand (read+write) misses
system.cpu.dcache.demand_mshr_hits::.switch_cpus.data      2527118                       # number of demand (read+write) MSHR hits
system.cpu.dcache.demand_mshr_hits::total      2527118                       # number of demand (read+write) MSHR hits
system.cpu.dcache.demand_mshr_miss_latency::.switch_cpus.data  83740891500                       # number of demand (read+write) MSHR miss cycles
system.cpu.dcache.demand_mshr_miss_latency::total  83740891500                       # number of demand (read+write) MSHR miss cycles
system.cpu.dcache.demand_mshr_miss_rate::.switch_cpus.data     0.078548                       # mshr miss rate for demand accesses
system.cpu.dcache.demand_mshr_miss_rate::total     0.078548                       # mshr miss rate for demand accesses
system.cpu.dcache.demand_mshr_misses::.switch_cpus.data      4033067                       # number of demand (read+write) MSHR misses
system.cpu.dcache.demand_mshr_misses::total      4033067                       # number of demand (read+write) MSHR misses
system.cpu.dcache.overall_accesses::.switch_cpus.data     51345567                       # number of overall (read+write) accesses
system.cpu.dcache.overall_accesses::total     51345567                       # number of overall (read+write) accesses
system.cpu.dcache.overall_avg_miss_latency::.switch_cpus.data 25262.312341                       # average overall miss latency
system.cpu.dcache.overall_avg_miss_latency::total 25262.312341                       # average overall miss latency
system.cpu.dcache.overall_avg_mshr_miss_latency::.switch_cpus.data 20764.342719                       # average overall mshr miss latency
system.cpu.dcache.overall_avg_mshr_miss_latency::total 20764.342719                       # average overall mshr miss latency
system.cpu.dcache.overall_hits::.switch_cpus.data     44785340                       # number of overall hits
system.cpu.dcache.overall_hits::total        44785340                       # number of overall hits
system.cpu.dcache.overall_miss_latency::.switch_cpus.data 165726503500                       # number of overall miss cycles
system.cpu.dcache.overall_miss_latency::total 165726503500                       # number of overall miss cycles
system.cpu.dcache.overall_miss_rate::.switch_cpus.data     0.127766                       # miss rate for overall accesses
system.cpu.dcache.overall_miss_rate::total     0.127766                       # miss rate for overall accesses
system.cpu.dcache.overall_misses::.switch_cpus.data      6560227                       # number of overall misses
system.cpu.dcache.overall_misses::total       6560227                       # number of overall misses
system.cpu.dcache.overall_mshr_hits::.switch_cpus.data      2527118                       # number of overall MSHR hits
system.cpu.dcache.overall_mshr_hits::total      2527118                       # number of overall MSHR hits
system.cpu.dcache.overall_mshr_miss_latency::.switch_cpus.data  83744857500                       # number of overall MSHR miss cycles
system.cpu.dcache.overall_mshr_miss_latency::total  83744857500                       # number of overall MSHR miss cycles
system.cpu.dcache.overall_mshr_miss_rate::.switch_cpus.data     0.078548                       # mshr miss rate for overall accesses
system.cpu.dcache.overall_mshr_miss_rate::total     0.078548                       # mshr miss rate for overall accesses
system.cpu.dcache.overall_mshr_misses::.switch_cpus.data      4033109                       # number of overall MSHR misses
system.cpu.dcache.overall_mshr_misses::total      4033109                       # number of overall MSHR misses
system.cpu.dcache.overall_mshr_uncacheable_misses::.switch_cpus.data           98                       # number of overall MSHR uncacheable misses
system.cpu.dcache.overall_mshr_uncacheable_misses::total           98                       # number of overall MSHR uncacheable misses
system.cpu.dcache.replacements                4030591                       # number of replacements
system.cpu.dcache.tags.age_task_id_blocks_1025::0          285                       # Occupied blocks per task id
system.cpu.dcache.tags.age_task_id_blocks_1025::1          737                       # Occupied blocks per task id
system.cpu.dcache.tags.age_task_id_blocks_1025::3            2                       # Occupied blocks per task id
system.cpu.dcache.tags.avg_refs             11.657586                       # Average number of references to valid blocks.
system.cpu.dcache.tags.data_accesses        414796151                       # Number of data accesses
system.cpu.dcache.tags.occ_blocks::.switch_cpus.data  1023.910981                       # Average occupied blocks per requestor
system.cpu.dcache.tags.occ_percent::.switch_cpus.data     0.999913                       # Average percentage of cache occupancy
system.cpu.dcache.tags.occ_percent::total     0.999913                       # Average percentage of cache occupancy
system.cpu.dcache.tags.occ_task_id_blocks::1025         1024                       # Occupied blocks per task id
system.cpu.dcache.tags.occ_task_id_percent::1025            1                       # Percentage of cache occupancy per task id
system.cpu.dcache.tags.sampled_refs           4030591                       # Sample count of references to valid blocks.
system.cpu.dcache.tags.tag_accesses         414796151                       # Number of tag accesses
system.cpu.dcache.tags.tagsinuse          1023.910981                       # Cycle average of tags in use
system.cpu.dcache.tags.total_refs            46986961                       # Total number of references to valid blocks.
system.cpu.dcache.tags.warmup_cycle      807268655856000                       # Cycle when the warmup percentage was hit.
system.cpu.dcache.tlbTagged.rdAccesses              0                       # TLB accesses on read requests
system.cpu.dcache.tlbTagged.rdMisses                0                       # TLB misses on read requests
system.cpu.dcache.tlbTagged.wrAccesses              0                       # TLB accesses on write requests
system.cpu.dcache.tlbTagged.wrMisses                0                       # TLB misses on write requests
system.cpu.dcache.writebacks::.writebacks      3220185                       # number of writebacks
system.cpu.dcache.writebacks::total           3220185                       # number of writebacks
system.cpu.dtb.rdAccesses                           0                       # TLB accesses on read requests
system.cpu.dtb.rdMisses                             0                       # TLB misses on read requests
system.cpu.dtb.wrAccesses                           0                       # TLB accesses on write requests
system.cpu.dtb.wrMisses                             0                       # TLB misses on write requests
system.cpu.dtb_walker_cache.DataMeta::0             0                       # Distribution of access
system.cpu.dtb_walker_cache.DataMeta::1             0                       # Distribution of access
system.cpu.dtb_walker_cache.DataMeta::2             0                       # Distribution of access
system.cpu.dtb_walker_cache.DataMeta::3             0                       # Distribution of access
system.cpu.dtb_walker_cache.ReadReq_accesses::.switch_cpus.dtb.walker        22279                       # number of ReadReq accesses(hits+misses)
system.cpu.dtb_walker_cache.ReadReq_accesses::total        22279                       # number of ReadReq accesses(hits+misses)
system.cpu.dtb_walker_cache.ReadReq_avg_miss_latency::.switch_cpus.dtb.walker 18334.591695                       # average ReadReq miss latency
system.cpu.dtb_walker_cache.ReadReq_avg_miss_latency::total 18334.591695                       # average ReadReq miss latency
system.cpu.dtb_walker_cache.ReadReq_avg_mshr_miss_latency::.switch_cpus.dtb.walker 17834.591695                       # average ReadReq mshr miss latency
system.cpu.dtb_walker_cache.ReadReq_avg_mshr_miss_latency::total 17834.591695                       # average ReadReq mshr miss latency
system.cpu.dtb_walker_cache.ReadReq_hits::.switch_cpus.dtb.walker        17246                       # number of ReadReq hits
system.cpu.dtb_walker_cache.ReadReq_hits::total        17246                       # number of ReadReq hits
system.cpu.dtb_walker_cache.ReadReq_miss_latency::.switch_cpus.dtb.walker     92278000                       # number of ReadReq miss cycles
system.cpu.dtb_walker_cache.ReadReq_miss_latency::total     92278000                       # number of ReadReq miss cycles
system.cpu.dtb_walker_cache.ReadReq_miss_rate::.switch_cpus.dtb.walker     0.225908                       # miss rate for ReadReq accesses
system.cpu.dtb_walker_cache.ReadReq_miss_rate::total     0.225908                       # miss rate for ReadReq accesses
system.cpu.dtb_walker_cache.ReadReq_misses::.switch_cpus.dtb.walker         5033                       # number of ReadReq misses
system.cpu.dtb_walker_cache.ReadReq_misses::total         5033                       # number of ReadReq misses
system.cpu.dtb_walker_cache.ReadReq_mshr_miss_latency::.switch_cpus.dtb.walker     89761500                       # number of ReadReq MSHR miss cycles
system.cpu.dtb_walker_cache.ReadReq_mshr_miss_latency::total     89761500                       # number of ReadReq MSHR miss cycles
system.cpu.dtb_walker_cache.ReadReq_mshr_miss_rate::.switch_cpus.dtb.walker     0.225908                       # mshr miss rate for ReadReq accesses
system.cpu.dtb_walker_cache.ReadReq_mshr_miss_rate::total     0.225908                       # mshr miss rate for ReadReq accesses
system.cpu.dtb_walker_cache.ReadReq_mshr_misses::.switch_cpus.dtb.walker         5033                       # number of ReadReq MSHR misses
system.cpu.dtb_walker_cache.ReadReq_mshr_misses::total         5033                       # number of ReadReq MSHR misses
system.cpu.dtb_walker_cache.avg_blocked_cycles::no_mshrs          nan                       # average number of cycles each access was blocked
system.cpu.dtb_walker_cache.avg_blocked_cycles::no_targets          nan                       # average number of cycles each access was blocked
system.cpu.dtb_walker_cache.blocked::no_mshrs            0                       # number of cycles access was blocked
system.cpu.dtb_walker_cache.blocked::no_targets            0                       # number of cycles access was blocked
system.cpu.dtb_walker_cache.blocked_cycles::no_mshrs            0                       # number of cycles access was blocked
system.cpu.dtb_walker_cache.blocked_cycles::no_targets            0                       # number of cycles access was blocked
system.cpu.dtb_walker_cache.demand_accesses::.switch_cpus.dtb.walker        22279                       # number of demand (read+write) accesses
system.cpu.dtb_walker_cache.demand_accesses::total        22279                       # number of demand (read+write) accesses
system.cpu.dtb_walker_cache.demand_avg_miss_latency::.switch_cpus.dtb.walker 18334.591695                       # average overall miss latency
system.cpu.dtb_walker_cache.demand_avg_miss_latency::total 18334.591695                       # average overall miss latency
system.cpu.dtb_walker_cache.demand_avg_mshr_miss_latency::.switch_cpus.dtb.walker 17834.591695                       # average overall mshr miss latency
system.cpu.dtb_walker_cache.demand_avg_mshr_miss_latency::total 17834.591695                       # average overall mshr miss latency
system.cpu.dtb_walker_cache.demand_hits::.switch_cpus.dtb.walker        17246                       # number of demand (read+write) hits
system.cpu.dtb_walker_cache.demand_hits::total        17246                       # number of demand (read+write) hits
system.cpu.dtb_walker_cache.demand_miss_latency::.switch_cpus.dtb.walker     92278000                       # number of demand (read+write) miss cycles
system.cpu.dtb_walker_cache.demand_miss_latency::total     92278000                       # number of demand (read+write) miss cycles
system.cpu.dtb_walker_cache.demand_miss_rate::.switch_cpus.dtb.walker     0.225908                       # miss rate for demand accesses
system.cpu.dtb_walker_cache.demand_miss_rate::total     0.225908                       # miss rate for demand accesses
system.cpu.dtb_walker_cache.demand_misses::.switch_cpus.dtb.walker         5033                       # number of demand (read+write) misses
system.cpu.dtb_walker_cache.demand_misses::total         5033                       # number of demand (read+write) misses
system.cpu.dtb_walker_cache.demand_mshr_miss_latency::.switch_cpus.dtb.walker     89761500                       # number of demand (read+write) MSHR miss cycles
system.cpu.dtb_walker_cache.demand_mshr_miss_latency::total     89761500                       # number of demand (read+write) MSHR miss cycles
system.cpu.dtb_walker_cache.demand_mshr_miss_rate::.switch_cpus.dtb.walker     0.225908                       # mshr miss rate for demand accesses
system.cpu.dtb_walker_cache.demand_mshr_miss_rate::total     0.225908                       # mshr miss rate for demand accesses
system.cpu.dtb_walker_cache.demand_mshr_misses::.switch_cpus.dtb.walker         5033                       # number of demand (read+write) MSHR misses
system.cpu.dtb_walker_cache.demand_mshr_misses::total         5033                       # number of demand (read+write) MSHR misses
system.cpu.dtb_walker_cache.overall_accesses::.switch_cpus.dtb.walker        22279                       # number of overall (read+write) accesses
system.cpu.dtb_walker_cache.overall_accesses::total        22279                       # number of overall (read+write) accesses
system.cpu.dtb_walker_cache.overall_avg_miss_latency::.switch_cpus.dtb.walker 18334.591695                       # average overall miss latency
system.cpu.dtb_walker_cache.overall_avg_miss_latency::total 18334.591695                       # average overall miss latency
system.cpu.dtb_walker_cache.overall_avg_mshr_miss_latency::.switch_cpus.dtb.walker 17834.591695                       # average overall mshr miss latency
system.cpu.dtb_walker_cache.overall_avg_mshr_miss_latency::total 17834.591695                       # average overall mshr miss latency
system.cpu.dtb_walker_cache.overall_hits::.switch_cpus.dtb.walker        17246                       # number of overall hits
system.cpu.dtb_walker_cache.overall_hits::total        17246                       # number of overall hits
system.cpu.dtb_walker_cache.overall_miss_latency::.switch_cpus.dtb.walker     92278000                       # number of overall miss cycles
system.cpu.dtb_walker_cache.overall_miss_latency::total     92278000                       # number of overall miss cycles
system.cpu.dtb_walker_cache.overall_miss_rate::.switch_cpus.dtb.walker     0.225908                       # miss rate for overall accesses
system.cpu.dtb_walker_cache.overall_miss_rate::total     0.225908                       # miss rate for overall accesses
system.cpu.dtb_walker_cache.overall_misses::.switch_cpus.dtb.walker         5033                       # number of overall misses
system.cpu.dtb_walker_cache.overall_misses::total         5033                       # number of overall misses
system.cpu.dtb_walker_cache.overall_mshr_miss_latency::.switch_cpus.dtb.walker     89761500                       # number of overall MSHR miss cycles
system.cpu.dtb_walker_cache.overall_mshr_miss_latency::total     89761500                       # number of overall MSHR miss cycles
system.cpu.dtb_walker_cache.overall_mshr_miss_rate::.switch_cpus.dtb.walker     0.225908                       # mshr miss rate for overall accesses
system.cpu.dtb_walker_cache.overall_mshr_miss_rate::total     0.225908                       # mshr miss rate for overall accesses
system.cpu.dtb_walker_cache.overall_mshr_misses::.switch_cpus.dtb.walker         5033                       # number of overall MSHR misses
system.cpu.dtb_walker_cache.overall_mshr_misses::total         5033                       # number of overall MSHR misses
system.cpu.dtb_walker_cache.replacements         4977                       # number of replacements
system.cpu.dtb_walker_cache.tags.age_task_id_blocks_1025::2            2                       # Occupied blocks per task id
system.cpu.dtb_walker_cache.tags.age_task_id_blocks_1025::3            6                       # Occupied blocks per task id
system.cpu.dtb_walker_cache.tags.age_task_id_blocks_1025::4            8                       # Occupied blocks per task id
system.cpu.dtb_walker_cache.tags.avg_refs     4.258122                       # Average number of references to valid blocks.
system.cpu.dtb_walker_cache.tags.data_accesses        49591                       # Number of data accesses
system.cpu.dtb_walker_cache.tags.occ_blocks::.switch_cpus.dtb.walker    15.826932                       # Average occupied blocks per requestor
system.cpu.dtb_walker_cache.tags.occ_percent::.switch_cpus.dtb.walker     0.989183                       # Average percentage of cache occupancy
system.cpu.dtb_walker_cache.tags.occ_percent::total     0.989183                       # Average percentage of cache occupancy
system.cpu.dtb_walker_cache.tags.occ_task_id_blocks::1025           16                       # Occupied blocks per task id
system.cpu.dtb_walker_cache.tags.occ_task_id_percent::1025            1                       # Percentage of cache occupancy per task id
system.cpu.dtb_walker_cache.tags.sampled_refs         5017                       # Sample count of references to valid blocks.
system.cpu.dtb_walker_cache.tags.tag_accesses        49591                       # Number of tag accesses
system.cpu.dtb_walker_cache.tags.tagsinuse    15.826932                       # Cycle average of tags in use
system.cpu.dtb_walker_cache.tags.total_refs        21363                       # Total number of references to valid blocks.
system.cpu.dtb_walker_cache.tags.warmup_cycle 807268655674000                       # Cycle when the warmup percentage was hit.
system.cpu.dtb_walker_cache.tlbTagged.rdAccesses            0                       # TLB accesses on read requests
system.cpu.dtb_walker_cache.tlbTagged.rdMisses            0                       # TLB misses on read requests
system.cpu.dtb_walker_cache.tlbTagged.wrAccesses            0                       # TLB accesses on write requests
system.cpu.dtb_walker_cache.tlbTagged.wrMisses            0                       # TLB misses on write requests
system.cpu.icache.DataMeta::0                       0                       # Distribution of access
system.cpu.icache.DataMeta::1                       0                       # Distribution of access
system.cpu.icache.DataMeta::2                       0                       # Distribution of access
system.cpu.icache.DataMeta::3                       0                       # Distribution of access
system.cpu.icache.ReadReq_accesses::.switch_cpus.inst      8671439                       # number of ReadReq accesses(hits+misses)
system.cpu.icache.ReadReq_accesses::total      8671439                       # number of ReadReq accesses(hits+misses)
system.cpu.icache.ReadReq_avg_miss_latency::.switch_cpus.inst 38482.563359                       # average ReadReq miss latency
system.cpu.icache.ReadReq_avg_miss_latency::total 38482.563359                       # average ReadReq miss latency
system.cpu.icache.ReadReq_avg_mshr_miss_latency::.switch_cpus.inst 37474.915592                       # average ReadReq mshr miss latency
system.cpu.icache.ReadReq_avg_mshr_miss_latency::total 37474.915592                       # average ReadReq mshr miss latency
system.cpu.icache.ReadReq_hits::.switch_cpus.inst      8656958                       # number of ReadReq hits
system.cpu.icache.ReadReq_hits::total         8656958                       # number of ReadReq hits
system.cpu.icache.ReadReq_miss_latency::.switch_cpus.inst    557266000                       # number of ReadReq miss cycles
system.cpu.icache.ReadReq_miss_latency::total    557266000                       # number of ReadReq miss cycles
system.cpu.icache.ReadReq_miss_rate::.switch_cpus.inst     0.001670                       # miss rate for ReadReq accesses
system.cpu.icache.ReadReq_miss_rate::total     0.001670                       # miss rate for ReadReq accesses
system.cpu.icache.ReadReq_misses::.switch_cpus.inst        14481                       # number of ReadReq misses
system.cpu.icache.ReadReq_misses::total         14481                       # number of ReadReq misses
system.cpu.icache.ReadReq_mshr_hits::.switch_cpus.inst         2930                       # number of ReadReq MSHR hits
system.cpu.icache.ReadReq_mshr_hits::total         2930                       # number of ReadReq MSHR hits
system.cpu.icache.ReadReq_mshr_miss_latency::.switch_cpus.inst    432872750                       # number of ReadReq MSHR miss cycles
system.cpu.icache.ReadReq_mshr_miss_latency::total    432872750                       # number of ReadReq MSHR miss cycles
system.cpu.icache.ReadReq_mshr_miss_rate::.switch_cpus.inst     0.001332                       # mshr miss rate for ReadReq accesses
system.cpu.icache.ReadReq_mshr_miss_rate::total     0.001332                       # mshr miss rate for ReadReq accesses
system.cpu.icache.ReadReq_mshr_misses::.switch_cpus.inst        11551                       # number of ReadReq MSHR misses
system.cpu.icache.ReadReq_mshr_misses::total        11551                       # number of ReadReq MSHR misses
system.cpu.icache.avg_blocked_cycles::no_mshrs          nan                       # average number of cycles each access was blocked
system.cpu.icache.avg_blocked_cycles::no_targets          nan                       # average number of cycles each access was blocked
system.cpu.icache.blocked::no_mshrs                 0                       # number of cycles access was blocked
system.cpu.icache.blocked::no_targets               0                       # number of cycles access was blocked
system.cpu.icache.blocked_cycles::no_mshrs            0                       # number of cycles access was blocked
system.cpu.icache.blocked_cycles::no_targets            0                       # number of cycles access was blocked
system.cpu.icache.demand_accesses::.switch_cpus.inst      8671439                       # number of demand (read+write) accesses
system.cpu.icache.demand_accesses::total      8671439                       # number of demand (read+write) accesses
system.cpu.icache.demand_avg_miss_latency::.switch_cpus.inst 38482.563359                       # average overall miss latency
system.cpu.icache.demand_avg_miss_latency::total 38482.563359                       # average overall miss latency
system.cpu.icache.demand_avg_mshr_miss_latency::.switch_cpus.inst 37474.915592                       # average overall mshr miss latency
system.cpu.icache.demand_avg_mshr_miss_latency::total 37474.915592                       # average overall mshr miss latency
system.cpu.icache.demand_hits::.switch_cpus.inst      8656958                       # number of demand (read+write) hits
system.cpu.icache.demand_hits::total          8656958                       # number of demand (read+write) hits
system.cpu.icache.demand_miss_latency::.switch_cpus.inst    557266000                       # number of demand (read+write) miss cycles
system.cpu.icache.demand_miss_latency::total    557266000                       # number of demand (read+write) miss cycles
system.cpu.icache.demand_miss_rate::.switch_cpus.inst     0.001670                       # miss rate for demand accesses
system.cpu.icache.demand_miss_rate::total     0.001670                       # miss rate for demand accesses
system.cpu.icache.demand_misses::.switch_cpus.inst        14481                       # number of demand (read+write) misses
system.cpu.icache.demand_misses::total          14481                       # number of demand (read+write) misses
system.cpu.icache.demand_mshr_hits::.switch_cpus.inst         2930                       # number of demand (read+write) MSHR hits
system.cpu.icache.demand_mshr_hits::total         2930                       # number of demand (read+write) MSHR hits
system.cpu.icache.demand_mshr_miss_latency::.switch_cpus.inst    432872750                       # number of demand (read+write) MSHR miss cycles
system.cpu.icache.demand_mshr_miss_latency::total    432872750                       # number of demand (read+write) MSHR miss cycles
system.cpu.icache.demand_mshr_miss_rate::.switch_cpus.inst     0.001332                       # mshr miss rate for demand accesses
system.cpu.icache.demand_mshr_miss_rate::total     0.001332                       # mshr miss rate for demand accesses
system.cpu.icache.demand_mshr_misses::.switch_cpus.inst        11551                       # number of demand (read+write) MSHR misses
system.cpu.icache.demand_mshr_misses::total        11551                       # number of demand (read+write) MSHR misses
system.cpu.icache.overall_accesses::.switch_cpus.inst      8671439                       # number of overall (read+write) accesses
system.cpu.icache.overall_accesses::total      8671439                       # number of overall (read+write) accesses
system.cpu.icache.overall_avg_miss_latency::.switch_cpus.inst 38482.563359                       # average overall miss latency
system.cpu.icache.overall_avg_miss_latency::total 38482.563359                       # average overall miss latency
system.cpu.icache.overall_avg_mshr_miss_latency::.switch_cpus.inst 37474.915592                       # average overall mshr miss latency
system.cpu.icache.overall_avg_mshr_miss_latency::total 37474.915592                       # average overall mshr miss latency
system.cpu.icache.overall_hits::.switch_cpus.inst      8656958                       # number of overall hits
system.cpu.icache.overall_hits::total         8656958                       # number of overall hits
system.cpu.icache.overall_miss_latency::.switch_cpus.inst    557266000                       # number of overall miss cycles
system.cpu.icache.overall_miss_latency::total    557266000                       # number of overall miss cycles
system.cpu.icache.overall_miss_rate::.switch_cpus.inst     0.001670                       # miss rate for overall accesses
system.cpu.icache.overall_miss_rate::total     0.001670                       # miss rate for overall accesses
system.cpu.icache.overall_misses::.switch_cpus.inst        14481                       # number of overall misses
system.cpu.icache.overall_misses::total         14481                       # number of overall misses
system.cpu.icache.overall_mshr_hits::.switch_cpus.inst         2930                       # number of overall MSHR hits
system.cpu.icache.overall_mshr_hits::total         2930                       # number of overall MSHR hits
system.cpu.icache.overall_mshr_miss_latency::.switch_cpus.inst    432872750                       # number of overall MSHR miss cycles
system.cpu.icache.overall_mshr_miss_latency::total    432872750                       # number of overall MSHR miss cycles
system.cpu.icache.overall_mshr_miss_rate::.switch_cpus.inst     0.001332                       # mshr miss rate for overall accesses
system.cpu.icache.overall_mshr_miss_rate::total     0.001332                       # mshr miss rate for overall accesses
system.cpu.icache.overall_mshr_misses::.switch_cpus.inst        11551                       # number of overall MSHR misses
system.cpu.icache.overall_mshr_misses::total        11551                       # number of overall MSHR misses
system.cpu.icache.replacements                  11039                       # number of replacements
system.cpu.icache.tags.age_task_id_blocks_1025::2           17                       # Occupied blocks per task id
system.cpu.icache.tags.age_task_id_blocks_1025::3          148                       # Occupied blocks per task id
system.cpu.icache.tags.age_task_id_blocks_1025::4          347                       # Occupied blocks per task id
system.cpu.icache.tags.avg_refs            207.027267                       # Average number of references to valid blocks.
system.cpu.icache.tags.data_accesses         34697307                       # Number of data accesses
system.cpu.icache.tags.occ_blocks::.switch_cpus.inst   487.113773                       # Average occupied blocks per requestor
system.cpu.icache.tags.occ_percent::.switch_cpus.inst     0.951394                       # Average percentage of cache occupancy
system.cpu.icache.tags.occ_percent::total     0.951394                       # Average percentage of cache occupancy
system.cpu.icache.tags.occ_task_id_blocks::1025          512                       # Occupied blocks per task id
system.cpu.icache.tags.occ_task_id_percent::1025            1                       # Percentage of cache occupancy per task id
system.cpu.icache.tags.sampled_refs             11039                       # Sample count of references to valid blocks.
system.cpu.icache.tags.tag_accesses          34697307                       # Number of tag accesses
system.cpu.icache.tags.tagsinuse           487.113773                       # Cycle average of tags in use
system.cpu.icache.tags.total_refs             2285374                       # Total number of references to valid blocks.
system.cpu.icache.tags.warmup_cycle      807268655668000                       # Cycle when the warmup percentage was hit.
system.cpu.icache.tlbTagged.rdAccesses              0                       # TLB accesses on read requests
system.cpu.icache.tlbTagged.rdMisses                0                       # TLB misses on read requests
system.cpu.icache.tlbTagged.wrAccesses              0                       # TLB accesses on write requests
system.cpu.icache.tlbTagged.wrMisses                0                       # TLB misses on write requests
system.cpu.icache.writebacks::.writebacks        11039                       # number of writebacks
system.cpu.icache.writebacks::total             11039                       # number of writebacks
system.cpu.itb.rdAccesses                           0                       # TLB accesses on read requests
system.cpu.itb.rdMisses                             0                       # TLB misses on read requests
system.cpu.itb.wrAccesses                           0                       # TLB accesses on write requests
system.cpu.itb.wrMisses                             0                       # TLB misses on write requests
system.cpu.itb_walker_cache.DataMeta::0             0                       # Distribution of access
system.cpu.itb_walker_cache.DataMeta::1             0                       # Distribution of access
system.cpu.itb_walker_cache.DataMeta::2             0                       # Distribution of access
system.cpu.itb_walker_cache.DataMeta::3             0                       # Distribution of access
system.cpu.itb_walker_cache.ReadReq_accesses::.switch_cpus.itb.walker          367                       # number of ReadReq accesses(hits+misses)
system.cpu.itb_walker_cache.ReadReq_accesses::total          367                       # number of ReadReq accesses(hits+misses)
system.cpu.itb_walker_cache.ReadReq_avg_miss_latency::.switch_cpus.itb.walker 56589.285714                       # average ReadReq miss latency
system.cpu.itb_walker_cache.ReadReq_avg_miss_latency::total 56589.285714                       # average ReadReq miss latency
system.cpu.itb_walker_cache.ReadReq_avg_mshr_miss_latency::.switch_cpus.itb.walker 56089.285714                       # average ReadReq mshr miss latency
system.cpu.itb_walker_cache.ReadReq_avg_mshr_miss_latency::total 56089.285714                       # average ReadReq mshr miss latency
system.cpu.itb_walker_cache.ReadReq_hits::.switch_cpus.itb.walker          283                       # number of ReadReq hits
system.cpu.itb_walker_cache.ReadReq_hits::total          283                       # number of ReadReq hits
system.cpu.itb_walker_cache.ReadReq_miss_latency::.switch_cpus.itb.walker      4753500                       # number of ReadReq miss cycles
system.cpu.itb_walker_cache.ReadReq_miss_latency::total      4753500                       # number of ReadReq miss cycles
system.cpu.itb_walker_cache.ReadReq_miss_rate::.switch_cpus.itb.walker     0.228883                       # miss rate for ReadReq accesses
system.cpu.itb_walker_cache.ReadReq_miss_rate::total     0.228883                       # miss rate for ReadReq accesses
system.cpu.itb_walker_cache.ReadReq_misses::.switch_cpus.itb.walker           84                       # number of ReadReq misses
system.cpu.itb_walker_cache.ReadReq_misses::total           84                       # number of ReadReq misses
system.cpu.itb_walker_cache.ReadReq_mshr_miss_latency::.switch_cpus.itb.walker      4711500                       # number of ReadReq MSHR miss cycles
system.cpu.itb_walker_cache.ReadReq_mshr_miss_latency::total      4711500                       # number of ReadReq MSHR miss cycles
system.cpu.itb_walker_cache.ReadReq_mshr_miss_rate::.switch_cpus.itb.walker     0.228883                       # mshr miss rate for ReadReq accesses
system.cpu.itb_walker_cache.ReadReq_mshr_miss_rate::total     0.228883                       # mshr miss rate for ReadReq accesses
system.cpu.itb_walker_cache.ReadReq_mshr_misses::.switch_cpus.itb.walker           84                       # number of ReadReq MSHR misses
system.cpu.itb_walker_cache.ReadReq_mshr_misses::total           84                       # number of ReadReq MSHR misses
system.cpu.itb_walker_cache.avg_blocked_cycles::no_mshrs          nan                       # average number of cycles each access was blocked
system.cpu.itb_walker_cache.avg_blocked_cycles::no_targets          nan                       # average number of cycles each access was blocked
system.cpu.itb_walker_cache.blocked::no_mshrs            0                       # number of cycles access was blocked
system.cpu.itb_walker_cache.blocked::no_targets            0                       # number of cycles access was blocked
system.cpu.itb_walker_cache.blocked_cycles::no_mshrs            0                       # number of cycles access was blocked
system.cpu.itb_walker_cache.blocked_cycles::no_targets            0                       # number of cycles access was blocked
system.cpu.itb_walker_cache.demand_accesses::.switch_cpus.itb.walker          367                       # number of demand (read+write) accesses
system.cpu.itb_walker_cache.demand_accesses::total          367                       # number of demand (read+write) accesses
system.cpu.itb_walker_cache.demand_avg_miss_latency::.switch_cpus.itb.walker 56589.285714                       # average overall miss latency
system.cpu.itb_walker_cache.demand_avg_miss_latency::total 56589.285714                       # average overall miss latency
system.cpu.itb_walker_cache.demand_avg_mshr_miss_latency::.switch_cpus.itb.walker 56089.285714                       # average overall mshr miss latency
system.cpu.itb_walker_cache.demand_avg_mshr_miss_latency::total 56089.285714                       # average overall mshr miss latency
system.cpu.itb_walker_cache.demand_hits::.switch_cpus.itb.walker          283                       # number of demand (read+write) hits
system.cpu.itb_walker_cache.demand_hits::total          283                       # number of demand (read+write) hits
system.cpu.itb_walker_cache.demand_miss_latency::.switch_cpus.itb.walker      4753500                       # number of demand (read+write) miss cycles
system.cpu.itb_walker_cache.demand_miss_latency::total      4753500                       # number of demand (read+write) miss cycles
system.cpu.itb_walker_cache.demand_miss_rate::.switch_cpus.itb.walker     0.228883                       # miss rate for demand accesses
system.cpu.itb_walker_cache.demand_miss_rate::total     0.228883                       # miss rate for demand accesses
system.cpu.itb_walker_cache.demand_misses::.switch_cpus.itb.walker           84                       # number of demand (read+write) misses
system.cpu.itb_walker_cache.demand_misses::total           84                       # number of demand (read+write) misses
system.cpu.itb_walker_cache.demand_mshr_miss_latency::.switch_cpus.itb.walker      4711500                       # number of demand (read+write) MSHR miss cycles
system.cpu.itb_walker_cache.demand_mshr_miss_latency::total      4711500                       # number of demand (read+write) MSHR miss cycles
system.cpu.itb_walker_cache.demand_mshr_miss_rate::.switch_cpus.itb.walker     0.228883                       # mshr miss rate for demand accesses
system.cpu.itb_walker_cache.demand_mshr_miss_rate::total     0.228883                       # mshr miss rate for demand accesses
system.cpu.itb_walker_cache.demand_mshr_misses::.switch_cpus.itb.walker           84                       # number of demand (read+write) MSHR misses
system.cpu.itb_walker_cache.demand_mshr_misses::total           84                       # number of demand (read+write) MSHR misses
system.cpu.itb_walker_cache.overall_accesses::.switch_cpus.itb.walker          367                       # number of overall (read+write) accesses
system.cpu.itb_walker_cache.overall_accesses::total          367                       # number of overall (read+write) accesses
system.cpu.itb_walker_cache.overall_avg_miss_latency::.switch_cpus.itb.walker 56589.285714                       # average overall miss latency
system.cpu.itb_walker_cache.overall_avg_miss_latency::total 56589.285714                       # average overall miss latency
system.cpu.itb_walker_cache.overall_avg_mshr_miss_latency::.switch_cpus.itb.walker 56089.285714                       # average overall mshr miss latency
system.cpu.itb_walker_cache.overall_avg_mshr_miss_latency::total 56089.285714                       # average overall mshr miss latency
system.cpu.itb_walker_cache.overall_hits::.switch_cpus.itb.walker          283                       # number of overall hits
system.cpu.itb_walker_cache.overall_hits::total          283                       # number of overall hits
system.cpu.itb_walker_cache.overall_miss_latency::.switch_cpus.itb.walker      4753500                       # number of overall miss cycles
system.cpu.itb_walker_cache.overall_miss_latency::total      4753500                       # number of overall miss cycles
system.cpu.itb_walker_cache.overall_miss_rate::.switch_cpus.itb.walker     0.228883                       # miss rate for overall accesses
system.cpu.itb_walker_cache.overall_miss_rate::total     0.228883                       # miss rate for overall accesses
system.cpu.itb_walker_cache.overall_misses::.switch_cpus.itb.walker           84                       # number of overall misses
system.cpu.itb_walker_cache.overall_misses::total           84                       # number of overall misses
system.cpu.itb_walker_cache.overall_mshr_miss_latency::.switch_cpus.itb.walker      4711500                       # number of overall MSHR miss cycles
system.cpu.itb_walker_cache.overall_mshr_miss_latency::total      4711500                       # number of overall MSHR miss cycles
system.cpu.itb_walker_cache.overall_mshr_miss_rate::.switch_cpus.itb.walker     0.228883                       # mshr miss rate for overall accesses
system.cpu.itb_walker_cache.overall_mshr_miss_rate::total     0.228883                       # mshr miss rate for overall accesses
system.cpu.itb_walker_cache.overall_mshr_misses::.switch_cpus.itb.walker           84                       # number of overall MSHR misses
system.cpu.itb_walker_cache.overall_mshr_misses::total           84                       # number of overall MSHR misses
system.cpu.itb_walker_cache.replacements           68                       # number of replacements
system.cpu.itb_walker_cache.tags.age_task_id_blocks_1025::4           16                       # Occupied blocks per task id
system.cpu.itb_walker_cache.tags.avg_refs     4.661765                       # Average number of references to valid blocks.
system.cpu.itb_walker_cache.tags.data_accesses          818                       # Number of data accesses
system.cpu.itb_walker_cache.tags.occ_blocks::.switch_cpus.itb.walker    14.272016                       # Average occupied blocks per requestor
system.cpu.itb_walker_cache.tags.occ_percent::.switch_cpus.itb.walker     0.892001                       # Average percentage of cache occupancy
system.cpu.itb_walker_cache.tags.occ_percent::total     0.892001                       # Average percentage of cache occupancy
system.cpu.itb_walker_cache.tags.occ_task_id_blocks::1025           16                       # Occupied blocks per task id
system.cpu.itb_walker_cache.tags.occ_task_id_percent::1025            1                       # Percentage of cache occupancy per task id
system.cpu.itb_walker_cache.tags.sampled_refs           68                       # Sample count of references to valid blocks.
system.cpu.itb_walker_cache.tags.tag_accesses          818                       # Number of tag accesses
system.cpu.itb_walker_cache.tags.tagsinuse    14.272016                       # Cycle average of tags in use
system.cpu.itb_walker_cache.tags.total_refs          317                       # Total number of references to valid blocks.
system.cpu.itb_walker_cache.tags.warmup_cycle 807268655327000                       # Cycle when the warmup percentage was hit.
system.cpu.itb_walker_cache.tlbTagged.rdAccesses            0                       # TLB accesses on read requests
system.cpu.itb_walker_cache.tlbTagged.rdMisses            0                       # TLB misses on read requests
system.cpu.itb_walker_cache.tlbTagged.wrAccesses            0                       # TLB accesses on write requests
system.cpu.itb_walker_cache.tlbTagged.wrMisses            0                       # TLB misses on write requests
system.cpu.kern.inst.arm                            0                       # number of arm instructions executed
system.cpu.kern.inst.quiesce                        0                       # number of quiesce instructions executed
system.cpu.l2cache.CleanEvict_mshr_miss_rate::.writebacks          inf                       # mshr miss rate for CleanEvict accesses
system.cpu.l2cache.CleanEvict_mshr_miss_rate::total          inf                       # mshr miss rate for CleanEvict accesses
system.cpu.l2cache.CleanEvict_mshr_misses::.writebacks          957                       # number of CleanEvict MSHR misses
system.cpu.l2cache.CleanEvict_mshr_misses::total          957                       # number of CleanEvict MSHR misses
system.cpu.l2cache.DataMeta::0                      0                       # Distribution of access
system.cpu.l2cache.DataMeta::1                      0                       # Distribution of access
system.cpu.l2cache.DataMeta::2                      0                       # Distribution of access
system.cpu.l2cache.DataMeta::3                      0                       # Distribution of access
system.cpu.l2cache.HardPFReq_avg_mshr_miss_latency::.cpu.l2cache.prefetcher 61261.379663                       # average HardPFReq mshr miss latency
system.cpu.l2cache.HardPFReq_avg_mshr_miss_latency::total 61261.379663                       # average HardPFReq mshr miss latency
system.cpu.l2cache.HardPFReq_mshr_miss_latency::.cpu.l2cache.prefetcher 190364713870                       # number of HardPFReq MSHR miss cycles
system.cpu.l2cache.HardPFReq_mshr_miss_latency::total 190364713870                       # number of HardPFReq MSHR miss cycles
system.cpu.l2cache.HardPFReq_mshr_miss_rate::.cpu.l2cache.prefetcher          inf                       # mshr miss rate for HardPFReq accesses
system.cpu.l2cache.HardPFReq_mshr_miss_rate::total          inf                       # mshr miss rate for HardPFReq accesses
system.cpu.l2cache.HardPFReq_mshr_misses::.cpu.l2cache.prefetcher      3107418                       # number of HardPFReq MSHR misses
system.cpu.l2cache.HardPFReq_mshr_misses::total      3107418                       # number of HardPFReq MSHR misses
system.cpu.l2cache.ReadCleanReq_accesses::.switch_cpus.inst        11551                       # number of ReadCleanReq accesses(hits+misses)
system.cpu.l2cache.ReadCleanReq_accesses::total        11551                       # number of ReadCleanReq accesses(hits+misses)
system.cpu.l2cache.ReadCleanReq_avg_miss_latency::.switch_cpus.inst 81073.034285                       # average ReadCleanReq miss latency
system.cpu.l2cache.ReadCleanReq_avg_miss_latency::total 81073.034285                       # average ReadCleanReq miss latency
system.cpu.l2cache.ReadCleanReq_avg_mshr_miss_latency::.switch_cpus.inst 82667.366947                       # average ReadCleanReq mshr miss latency
system.cpu.l2cache.ReadCleanReq_avg_mshr_miss_latency::total 82667.366947                       # average ReadCleanReq mshr miss latency
system.cpu.l2cache.ReadCleanReq_hits::.switch_cpus.inst         6680                       # number of ReadCleanReq hits
system.cpu.l2cache.ReadCleanReq_hits::total         6680                       # number of ReadCleanReq hits
system.cpu.l2cache.ReadCleanReq_miss_latency::.switch_cpus.inst    394906750                       # number of ReadCleanReq miss cycles
system.cpu.l2cache.ReadCleanReq_miss_latency::total    394906750                       # number of ReadCleanReq miss cycles
system.cpu.l2cache.ReadCleanReq_miss_rate::.switch_cpus.inst     0.421695                       # miss rate for ReadCleanReq accesses
system.cpu.l2cache.ReadCleanReq_miss_rate::total     0.421695                       # miss rate for ReadCleanReq accesses
system.cpu.l2cache.ReadCleanReq_misses::.switch_cpus.inst         4871                       # number of ReadCleanReq misses
system.cpu.l2cache.ReadCleanReq_misses::total         4871                       # number of ReadCleanReq misses
system.cpu.l2cache.ReadCleanReq_mshr_hits::.switch_cpus.inst          230                       # number of ReadCleanReq MSHR hits
system.cpu.l2cache.ReadCleanReq_mshr_hits::total          230                       # number of ReadCleanReq MSHR hits
system.cpu.l2cache.ReadCleanReq_mshr_miss_latency::.switch_cpus.inst    383659250                       # number of ReadCleanReq MSHR miss cycles
system.cpu.l2cache.ReadCleanReq_mshr_miss_latency::total    383659250                       # number of ReadCleanReq MSHR miss cycles
system.cpu.l2cache.ReadCleanReq_mshr_miss_rate::.switch_cpus.inst     0.401783                       # mshr miss rate for ReadCleanReq accesses
system.cpu.l2cache.ReadCleanReq_mshr_miss_rate::total     0.401783                       # mshr miss rate for ReadCleanReq accesses
system.cpu.l2cache.ReadCleanReq_mshr_misses::.switch_cpus.inst         4641                       # number of ReadCleanReq MSHR misses
system.cpu.l2cache.ReadCleanReq_mshr_misses::total         4641                       # number of ReadCleanReq MSHR misses
system.cpu.l2cache.ReadExReq_accesses::.switch_cpus.data      3121367                       # number of ReadExReq accesses(hits+misses)
system.cpu.l2cache.ReadExReq_accesses::total      3121367                       # number of ReadExReq accesses(hits+misses)
system.cpu.l2cache.ReadExReq_avg_miss_latency::.switch_cpus.data 37761.550141                       # average ReadExReq miss latency
system.cpu.l2cache.ReadExReq_avg_miss_latency::total 37761.550141                       # average ReadExReq miss latency
system.cpu.l2cache.ReadExReq_avg_mshr_miss_latency::.switch_cpus.data 20577.877261                       # average ReadExReq mshr miss latency
system.cpu.l2cache.ReadExReq_avg_mshr_miss_latency::total 20577.877261                       # average ReadExReq mshr miss latency
system.cpu.l2cache.ReadExReq_hits::.switch_cpus.data      1898265                       # number of ReadExReq hits
system.cpu.l2cache.ReadExReq_hits::total      1898265                       # number of ReadExReq hits
system.cpu.l2cache.ReadExReq_miss_latency::.switch_cpus.data  46186227500                       # number of ReadExReq miss cycles
system.cpu.l2cache.ReadExReq_miss_latency::total  46186227500                       # number of ReadExReq miss cycles
system.cpu.l2cache.ReadExReq_miss_rate::.switch_cpus.data     0.391848                       # miss rate for ReadExReq accesses
system.cpu.l2cache.ReadExReq_miss_rate::total     0.391848                       # miss rate for ReadExReq accesses
system.cpu.l2cache.ReadExReq_misses::.switch_cpus.data      1223102                       # number of ReadExReq misses
system.cpu.l2cache.ReadExReq_misses::total      1223102                       # number of ReadExReq misses
system.cpu.l2cache.ReadExReq_mshr_hits::.switch_cpus.data       451500                       # number of ReadExReq MSHR hits
system.cpu.l2cache.ReadExReq_mshr_hits::total       451500                       # number of ReadExReq MSHR hits
system.cpu.l2cache.ReadExReq_mshr_miss_latency::.switch_cpus.data  15877931250                       # number of ReadExReq MSHR miss cycles
system.cpu.l2cache.ReadExReq_mshr_miss_latency::total  15877931250                       # number of ReadExReq MSHR miss cycles
system.cpu.l2cache.ReadExReq_mshr_miss_rate::.switch_cpus.data     0.247200                       # mshr miss rate for ReadExReq accesses
system.cpu.l2cache.ReadExReq_mshr_miss_rate::total     0.247200                       # mshr miss rate for ReadExReq accesses
system.cpu.l2cache.ReadExReq_mshr_misses::.switch_cpus.data       771602                       # number of ReadExReq MSHR misses
system.cpu.l2cache.ReadExReq_mshr_misses::total       771602                       # number of ReadExReq MSHR misses
system.cpu.l2cache.ReadSharedReq_accesses::.switch_cpus.dtb.walker         4986                       # number of ReadSharedReq accesses(hits+misses)
system.cpu.l2cache.ReadSharedReq_accesses::.switch_cpus.itb.walker           84                       # number of ReadSharedReq accesses(hits+misses)
system.cpu.l2cache.ReadSharedReq_accesses::.switch_cpus.data       910248                       # number of ReadSharedReq accesses(hits+misses)
system.cpu.l2cache.ReadSharedReq_accesses::total       915318                       # number of ReadSharedReq accesses(hits+misses)
system.cpu.l2cache.ReadSharedReq_avg_miss_latency::.switch_cpus.dtb.walker 72727.386935                       # average ReadSharedReq miss latency
system.cpu.l2cache.ReadSharedReq_avg_miss_latency::.switch_cpus.itb.walker 92142.857143                       # average ReadSharedReq miss latency
system.cpu.l2cache.ReadSharedReq_avg_miss_latency::.switch_cpus.data 52442.362040                       # average ReadSharedReq miss latency
system.cpu.l2cache.ReadSharedReq_avg_miss_latency::total 52489.669112                       # average ReadSharedReq miss latency
system.cpu.l2cache.ReadSharedReq_avg_mshr_miss_latency::.switch_cpus.dtb.walker 72739.688129                       # average ReadSharedReq mshr miss latency
system.cpu.l2cache.ReadSharedReq_avg_mshr_miss_latency::.switch_cpus.itb.walker 92142.857143                       # average ReadSharedReq mshr miss latency
system.cpu.l2cache.ReadSharedReq_avg_mshr_miss_latency::.switch_cpus.data 26675.199682                       # average ReadSharedReq mshr miss latency
system.cpu.l2cache.ReadSharedReq_avg_mshr_miss_latency::total 26949.956540                       # average ReadSharedReq mshr miss latency
system.cpu.l2cache.ReadSharedReq_hits::.switch_cpus.dtb.walker         3991                       # number of ReadSharedReq hits
system.cpu.l2cache.ReadSharedReq_hits::.switch_cpus.itb.walker           35                       # number of ReadSharedReq hits
system.cpu.l2cache.ReadSharedReq_hits::.switch_cpus.data       443520                       # number of ReadSharedReq hits
system.cpu.l2cache.ReadSharedReq_hits::total       447546                       # number of ReadSharedReq hits
system.cpu.l2cache.ReadSharedReq_miss_latency::.switch_cpus.dtb.walker     72363750                       # number of ReadSharedReq miss cycles
system.cpu.l2cache.ReadSharedReq_miss_latency::.switch_cpus.itb.walker      4515000                       # number of ReadSharedReq miss cycles
system.cpu.l2cache.ReadSharedReq_miss_latency::.switch_cpus.data  24476318750                       # number of ReadSharedReq miss cycles
system.cpu.l2cache.ReadSharedReq_miss_latency::total  24553197500                       # number of ReadSharedReq miss cycles
system.cpu.l2cache.ReadSharedReq_miss_rate::.switch_cpus.dtb.walker     0.199559                       # miss rate for ReadSharedReq accesses
system.cpu.l2cache.ReadSharedReq_miss_rate::.switch_cpus.itb.walker     0.583333                       # miss rate for ReadSharedReq accesses
system.cpu.l2cache.ReadSharedReq_miss_rate::.switch_cpus.data     0.512748                       # miss rate for ReadSharedReq accesses
system.cpu.l2cache.ReadSharedReq_miss_rate::total     0.511049                       # miss rate for ReadSharedReq accesses
system.cpu.l2cache.ReadSharedReq_misses::.switch_cpus.dtb.walker          995                       # number of ReadSharedReq misses
system.cpu.l2cache.ReadSharedReq_misses::.switch_cpus.itb.walker           49                       # number of ReadSharedReq misses
system.cpu.l2cache.ReadSharedReq_misses::.switch_cpus.data       466728                       # number of ReadSharedReq misses
system.cpu.l2cache.ReadSharedReq_misses::total       467772                       # number of ReadSharedReq misses
system.cpu.l2cache.ReadSharedReq_mshr_hits::.switch_cpus.dtb.walker            1                       # number of ReadSharedReq MSHR hits
system.cpu.l2cache.ReadSharedReq_mshr_hits::.switch_cpus.data       289446                       # number of ReadSharedReq MSHR hits
system.cpu.l2cache.ReadSharedReq_mshr_hits::total       289447                       # number of ReadSharedReq MSHR hits
system.cpu.l2cache.ReadSharedReq_mshr_miss_latency::.switch_cpus.dtb.walker     72303250                       # number of ReadSharedReq MSHR miss cycles
system.cpu.l2cache.ReadSharedReq_mshr_miss_latency::.switch_cpus.itb.walker      4515000                       # number of ReadSharedReq MSHR miss cycles
system.cpu.l2cache.ReadSharedReq_mshr_miss_latency::.switch_cpus.data   4729032750                       # number of ReadSharedReq MSHR miss cycles
system.cpu.l2cache.ReadSharedReq_mshr_miss_latency::total   4805851000                       # number of ReadSharedReq MSHR miss cycles
system.cpu.l2cache.ReadSharedReq_mshr_miss_rate::.switch_cpus.dtb.walker     0.199358                       # mshr miss rate for ReadSharedReq accesses
system.cpu.l2cache.ReadSharedReq_mshr_miss_rate::.switch_cpus.itb.walker     0.583333                       # mshr miss rate for ReadSharedReq accesses
system.cpu.l2cache.ReadSharedReq_mshr_miss_rate::.switch_cpus.data     0.194762                       # mshr miss rate for ReadSharedReq accesses
system.cpu.l2cache.ReadSharedReq_mshr_miss_rate::total     0.194823                       # mshr miss rate for ReadSharedReq accesses
system.cpu.l2cache.ReadSharedReq_mshr_misses::.switch_cpus.dtb.walker          994                       # number of ReadSharedReq MSHR misses
system.cpu.l2cache.ReadSharedReq_mshr_misses::.switch_cpus.itb.walker           49                       # number of ReadSharedReq MSHR misses
system.cpu.l2cache.ReadSharedReq_mshr_misses::.switch_cpus.data       177282                       # number of ReadSharedReq MSHR misses
system.cpu.l2cache.ReadSharedReq_mshr_misses::total       178325                       # number of ReadSharedReq MSHR misses
system.cpu.l2cache.UpgradeReq_accesses::.switch_cpus.data         1512                       # number of UpgradeReq accesses(hits+misses)
system.cpu.l2cache.UpgradeReq_accesses::total         1512                       # number of UpgradeReq accesses(hits+misses)
system.cpu.l2cache.UpgradeReq_avg_miss_latency::.switch_cpus.data 13211.206897                       # average UpgradeReq miss latency
system.cpu.l2cache.UpgradeReq_avg_miss_latency::total 13211.206897                       # average UpgradeReq miss latency
system.cpu.l2cache.UpgradeReq_avg_mshr_miss_latency::.switch_cpus.data 15762.931034                       # average UpgradeReq mshr miss latency
system.cpu.l2cache.UpgradeReq_avg_mshr_miss_latency::total 15762.931034                       # average UpgradeReq mshr miss latency
system.cpu.l2cache.UpgradeReq_hits::.switch_cpus.data         1454                       # number of UpgradeReq hits
system.cpu.l2cache.UpgradeReq_hits::total         1454                       # number of UpgradeReq hits
system.cpu.l2cache.UpgradeReq_miss_latency::.switch_cpus.data       766250                       # number of UpgradeReq miss cycles
system.cpu.l2cache.UpgradeReq_miss_latency::total       766250                       # number of UpgradeReq miss cycles
system.cpu.l2cache.UpgradeReq_miss_rate::.switch_cpus.data     0.038360                       # miss rate for UpgradeReq accesses
system.cpu.l2cache.UpgradeReq_miss_rate::total     0.038360                       # miss rate for UpgradeReq accesses
system.cpu.l2cache.UpgradeReq_misses::.switch_cpus.data           58                       # number of UpgradeReq misses
system.cpu.l2cache.UpgradeReq_misses::total           58                       # number of UpgradeReq misses
system.cpu.l2cache.UpgradeReq_mshr_miss_latency::.switch_cpus.data       914250                       # number of UpgradeReq MSHR miss cycles
system.cpu.l2cache.UpgradeReq_mshr_miss_latency::total       914250                       # number of UpgradeReq MSHR miss cycles
system.cpu.l2cache.UpgradeReq_mshr_miss_rate::.switch_cpus.data     0.038360                       # mshr miss rate for UpgradeReq accesses
system.cpu.l2cache.UpgradeReq_mshr_miss_rate::total     0.038360                       # mshr miss rate for UpgradeReq accesses
system.cpu.l2cache.UpgradeReq_mshr_misses::.switch_cpus.data           58                       # number of UpgradeReq MSHR misses
system.cpu.l2cache.UpgradeReq_mshr_misses::total           58                       # number of UpgradeReq MSHR misses
system.cpu.l2cache.WriteReq_mshr_uncacheable::.switch_cpus.data           98                       # number of WriteReq MSHR uncacheable
system.cpu.l2cache.WriteReq_mshr_uncacheable::total           98                       # number of WriteReq MSHR uncacheable
system.cpu.l2cache.WritebackClean_accesses::.writebacks        11039                       # number of WritebackClean accesses(hits+misses)
system.cpu.l2cache.WritebackClean_accesses::total        11039                       # number of WritebackClean accesses(hits+misses)
system.cpu.l2cache.WritebackClean_hits::.writebacks        11039                       # number of WritebackClean hits
system.cpu.l2cache.WritebackClean_hits::total        11039                       # number of WritebackClean hits
system.cpu.l2cache.WritebackDirty_accesses::.writebacks      3220185                       # number of WritebackDirty accesses(hits+misses)
system.cpu.l2cache.WritebackDirty_accesses::total      3220185                       # number of WritebackDirty accesses(hits+misses)
system.cpu.l2cache.WritebackDirty_hits::.writebacks      3220185                       # number of WritebackDirty hits
system.cpu.l2cache.WritebackDirty_hits::total      3220185                       # number of WritebackDirty hits
system.cpu.l2cache.avg_blocked_cycles::no_mshrs          nan                       # average number of cycles each access was blocked
system.cpu.l2cache.avg_blocked_cycles::no_targets          nan                       # average number of cycles each access was blocked
system.cpu.l2cache.blocked::no_mshrs                0                       # number of cycles access was blocked
system.cpu.l2cache.blocked::no_targets              0                       # number of cycles access was blocked
system.cpu.l2cache.blocked_cycles::no_mshrs            0                       # number of cycles access was blocked
system.cpu.l2cache.blocked_cycles::no_targets            0                       # number of cycles access was blocked
system.cpu.l2cache.demand_accesses::.switch_cpus.dtb.walker         4986                       # number of demand (read+write) accesses
system.cpu.l2cache.demand_accesses::.switch_cpus.itb.walker           84                       # number of demand (read+write) accesses
system.cpu.l2cache.demand_accesses::.switch_cpus.inst        11551                       # number of demand (read+write) accesses
system.cpu.l2cache.demand_accesses::.switch_cpus.data      4031615                       # number of demand (read+write) accesses
system.cpu.l2cache.demand_accesses::total      4048236                       # number of demand (read+write) accesses
system.cpu.l2cache.demand_avg_miss_latency::.switch_cpus.dtb.walker 72727.386935                       # average overall miss latency
system.cpu.l2cache.demand_avg_miss_latency::.switch_cpus.itb.walker 92142.857143                       # average overall miss latency
system.cpu.l2cache.demand_avg_miss_latency::.switch_cpus.inst 81073.034285                       # average overall miss latency
system.cpu.l2cache.demand_avg_miss_latency::.switch_cpus.data 41816.363924                       # average overall miss latency
system.cpu.l2cache.demand_avg_miss_latency::total 41948.719737                       # average overall miss latency
system.cpu.l2cache.demand_avg_mshr_miss_latency::.switch_cpus.dtb.walker 72739.688129                       # average overall mshr miss latency
system.cpu.l2cache.demand_avg_mshr_miss_latency::.switch_cpus.itb.walker 92142.857143                       # average overall mshr miss latency
system.cpu.l2cache.demand_avg_mshr_miss_latency::.switch_cpus.inst 82667.366947                       # average overall mshr miss latency
system.cpu.l2cache.demand_avg_mshr_miss_latency::.switch_cpus.data 21717.052875                       # average overall mshr miss latency
system.cpu.l2cache.demand_avg_mshr_miss_latency::total 22070.131725                       # average overall mshr miss latency
system.cpu.l2cache.demand_hits::.switch_cpus.dtb.walker         3991                       # number of demand (read+write) hits
system.cpu.l2cache.demand_hits::.switch_cpus.itb.walker           35                       # number of demand (read+write) hits
system.cpu.l2cache.demand_hits::.switch_cpus.inst         6680                       # number of demand (read+write) hits
system.cpu.l2cache.demand_hits::.switch_cpus.data      2341785                       # number of demand (read+write) hits
system.cpu.l2cache.demand_hits::total         2352491                       # number of demand (read+write) hits
system.cpu.l2cache.demand_miss_latency::.switch_cpus.dtb.walker     72363750                       # number of demand (read+write) miss cycles
system.cpu.l2cache.demand_miss_latency::.switch_cpus.itb.walker      4515000                       # number of demand (read+write) miss cycles
system.cpu.l2cache.demand_miss_latency::.switch_cpus.inst    394906750                       # number of demand (read+write) miss cycles
system.cpu.l2cache.demand_miss_latency::.switch_cpus.data  70662546250                       # number of demand (read+write) miss cycles
system.cpu.l2cache.demand_miss_latency::total  71134331750                       # number of demand (read+write) miss cycles
system.cpu.l2cache.demand_miss_rate::.switch_cpus.dtb.walker     0.199559                       # miss rate for demand accesses
system.cpu.l2cache.demand_miss_rate::.switch_cpus.itb.walker     0.583333                       # miss rate for demand accesses
system.cpu.l2cache.demand_miss_rate::.switch_cpus.inst     0.421695                       # miss rate for demand accesses
system.cpu.l2cache.demand_miss_rate::.switch_cpus.data     0.419145                       # miss rate for demand accesses
system.cpu.l2cache.demand_miss_rate::total     0.418885                       # miss rate for demand accesses
system.cpu.l2cache.demand_misses::.switch_cpus.dtb.walker          995                       # number of demand (read+write) misses
system.cpu.l2cache.demand_misses::.switch_cpus.itb.walker           49                       # number of demand (read+write) misses
system.cpu.l2cache.demand_misses::.switch_cpus.inst         4871                       # number of demand (read+write) misses
system.cpu.l2cache.demand_misses::.switch_cpus.data      1689830                       # number of demand (read+write) misses
system.cpu.l2cache.demand_misses::total       1695745                       # number of demand (read+write) misses
system.cpu.l2cache.demand_mshr_hits::.switch_cpus.dtb.walker            1                       # number of demand (read+write) MSHR hits
system.cpu.l2cache.demand_mshr_hits::.switch_cpus.inst          230                       # number of demand (read+write) MSHR hits
system.cpu.l2cache.demand_mshr_hits::.switch_cpus.data       740946                       # number of demand (read+write) MSHR hits
system.cpu.l2cache.demand_mshr_hits::total       741177                       # number of demand (read+write) MSHR hits
system.cpu.l2cache.demand_mshr_miss_latency::.switch_cpus.dtb.walker     72303250                       # number of demand (read+write) MSHR miss cycles
system.cpu.l2cache.demand_mshr_miss_latency::.switch_cpus.itb.walker      4515000                       # number of demand (read+write) MSHR miss cycles
system.cpu.l2cache.demand_mshr_miss_latency::.switch_cpus.inst    383659250                       # number of demand (read+write) MSHR miss cycles
system.cpu.l2cache.demand_mshr_miss_latency::.switch_cpus.data  20606964000                       # number of demand (read+write) MSHR miss cycles
system.cpu.l2cache.demand_mshr_miss_latency::total  21067441500                       # number of demand (read+write) MSHR miss cycles
system.cpu.l2cache.demand_mshr_miss_rate::.switch_cpus.dtb.walker     0.199358                       # mshr miss rate for demand accesses
system.cpu.l2cache.demand_mshr_miss_rate::.switch_cpus.itb.walker     0.583333                       # mshr miss rate for demand accesses
system.cpu.l2cache.demand_mshr_miss_rate::.switch_cpus.inst     0.401783                       # mshr miss rate for demand accesses
system.cpu.l2cache.demand_mshr_miss_rate::.switch_cpus.data     0.235361                       # mshr miss rate for demand accesses
system.cpu.l2cache.demand_mshr_miss_rate::total     0.235799                       # mshr miss rate for demand accesses
system.cpu.l2cache.demand_mshr_misses::.switch_cpus.dtb.walker          994                       # number of demand (read+write) MSHR misses
system.cpu.l2cache.demand_mshr_misses::.switch_cpus.itb.walker           49                       # number of demand (read+write) MSHR misses
system.cpu.l2cache.demand_mshr_misses::.switch_cpus.inst         4641                       # number of demand (read+write) MSHR misses
system.cpu.l2cache.demand_mshr_misses::.switch_cpus.data       948884                       # number of demand (read+write) MSHR misses
system.cpu.l2cache.demand_mshr_misses::total       954568                       # number of demand (read+write) MSHR misses
system.cpu.l2cache.overall_accesses::.switch_cpus.dtb.walker         4986                       # number of overall (read+write) accesses
system.cpu.l2cache.overall_accesses::.switch_cpus.itb.walker           84                       # number of overall (read+write) accesses
system.cpu.l2cache.overall_accesses::.switch_cpus.inst        11551                       # number of overall (read+write) accesses
system.cpu.l2cache.overall_accesses::.switch_cpus.data      4031615                       # number of overall (read+write) accesses
[...]
system.switch_cpus.iq.fu_full::SimdPredAlu            0                       # attempts to use FU when none available
system.switch_cpus.iq.fu_full::MemRead              0                       # attempts to use FU when none available
system.switch_cpus.iq.fu_full::MemWrite             0                       # attempts to use FU when none available
system.switch_cpus.iq.fu_full::FloatMemRead            0                       # attempts to use FU when none available
system.switch_cpus.iq.fu_full::FloatMemWrite            0                       # attempts to use FU when none available
system.switch_cpus.iq.fu_full::IprAccess            0                       # attempts to use FU when none available
system.switch_cpus.iq.fu_full::InstPrefetch            0                       # attempts to use FU when none available
system.switch_cpus.iq.int_alu_accesses         123909                       # Number of integer alu accesses
system.switch_cpus.iq.int_inst_queue_reads       362425                       # Number of integer instruction queue reads
system.switch_cpus.iq.int_inst_queue_wakeup_accesses       123909                       # Number of integer instruction queue wakeup accesses
system.switch_cpus.iq.int_inst_queue_writes       123909                       # Number of integer instruction queue writes
system.switch_cpus.iq.iqInstsAdded             123909                       # Number of instructions added to the IQ (excludes non-spec)
system.switch_cpus.iq.iqInstsIssued            123909                       # Number of instructions issued
system.switch_cpus.iq.issued_per_cycle::samples       114607                       # Number of insts issued each cycle
system.switch_cpus.iq.issued_per_cycle::mean     1.081164                       # Number of insts issued each cycle
system.switch_cpus.iq.issued_per_cycle::stdev     1.680117                       # Number of insts issued each cycle
system.switch_cpus.iq.issued_per_cycle::underflows            0      0.00%      0.00% # Number of insts issued each cycle
system.switch_cpus.iq.issued_per_cycle::0        70076     61.14%     61.14% # Number of insts issued each cycle
system.switch_cpus.iq.issued_per_cycle::1        12173     10.62%     71.77% # Number of insts issued each cycle
system.switch_cpus.iq.issued_per_cycle::2        12167     10.62%     82.38% # Number of insts issued each cycle
system.switch_cpus.iq.issued_per_cycle::3         4151      3.62%     86.00% # Number of insts issued each cycle
system.switch_cpus.iq.issued_per_cycle::4         8018      7.00%     93.00% # Number of insts issued each cycle
system.switch_cpus.iq.issued_per_cycle::5         5255      4.59%     97.59% # Number of insts issued each cycle
system.switch_cpus.iq.issued_per_cycle::6         2767      2.41%    100.00% # Number of insts issued each cycle
system.switch_cpus.iq.issued_per_cycle::7            0      0.00%    100.00% # Number of insts issued each cycle
system.switch_cpus.iq.issued_per_cycle::8            0      0.00%    100.00% # Number of insts issued each cycle
system.switch_cpus.iq.issued_per_cycle::overflows            0      0.00%    100.00% # Number of insts issued each cycle
system.switch_cpus.iq.issued_per_cycle::min_value            0                       # Number of insts issued each cycle
system.switch_cpus.iq.issued_per_cycle::max_value            6                       # Number of insts issued each cycle
system.switch_cpus.iq.issued_per_cycle::total       114607                       # Number of insts issued each cycle
system.switch_cpus.iq.rate                   1.081164                       # Inst issue rate
system.switch_cpus.iq.vec_alu_accesses              0                       # Number of vector alu accesses
system.switch_cpus.iq.vec_inst_queue_reads            0                       # Number of vector instruction queue reads
system.switch_cpus.iq.vec_inst_queue_wakeup_accesses            0                       # Number of vector instruction queue wakeup accesses
system.switch_cpus.iq.vec_inst_queue_writes            0                       # Number of vector instruction queue writes
system.switch_cpus.itb.rdAccesses                   0                       # TLB accesses on read requests
system.switch_cpus.itb.rdMisses                     0                       # TLB misses on read requests
system.switch_cpus.itb.wrAccesses                6637                       # TLB accesses on write requests
system.switch_cpus.itb.wrMisses                     0                       # TLB misses on write requests
system.switch_cpus.kern.inst.arm                    0                       # number of arm instructions executed
system.switch_cpus.kern.inst.quiesce                0                       # number of quiesce instructions executed
system.switch_cpus.memDep0.conflictingLoads            0                       # Number of conflicting loads.
system.switch_cpus.memDep0.conflictingStores            0                       # Number of conflicting stores.
system.switch_cpus.memDep0.insertedLoads        13276                       # Number of loads inserted to the mem dependence unit.
system.switch_cpus.memDep0.insertedStores        19914                       # Number of stores inserted to the mem dependence unit.
system.switch_cpus.misc_regfile_reads           64168                       # number of misc regfile reads
system.switch_cpus.numCycles                   114607                       # number of cpu cycles simulated
system.switch_cpus.numWorkItemsCompleted            0                       # number of work items this cpu completed
system.switch_cpus.numWorkItemsStarted              0                       # number of work items this cpu started
system.switch_cpus.rename.CommittedMaps        132775                       # Number of HB maps that are committed
system.switch_cpus.rename.IdleCycles             9957                       # Number of cycles rename is idle
system.switch_cpus.rename.RenameLookups        309787                       # Number of register rename lookups that rename has made
system.switch_cpus.rename.RenamedInsts         123914                       # Number of instructions processed by rename
system.switch_cpus.rename.RenamedOperands       132764                       # Number of destination operands rename has renamed
system.switch_cpus.rename.RunCycles              9957                       # Number of cycles rename is running
system.switch_cpus.rename.SQFullEvents          91095                       # Number of times rename has blocked due to SQ full
system.switch_cpus.rename.UnblockCycles         94693                       # Number of cycles rename is unblocking
system.switch_cpus.rename.int_rename_lookups       161533                       # Number of integer rename lookups
system.switch_cpus.rename.serializeStallCycles            0                       # count of cycles rename stalled for serializing inst
system.switch_cpus.rename.serializingInsts            0                       # count of serializing insts renamed
system.switch_cpus.rename.skidInsts             86288                       # count of insts added to the skid buffer
system.switch_cpus.rename.tempSerializingInsts            0                       # count of temporary serializing insts renamed
system.switch_cpus.rob.rob_reads               238527                       # The number of ROB reads
system.switch_cpus.rob.rob_writes              247829                       # The number of ROB writes
system.tol3bus.pkt_count_system.cpu.l2cache.mem_side::system.l3.cpu_side         2484                       # Packet count per connected master and slave (bytes)
system.tol3bus.pkt_size_system.cpu.l2cache.mem_side::system.l3.cpu_side       105984                       # Cumulative packet size per connected master and slave (bytes)
system.tol3bus.reqLayer0.occupancy             828000                       # Layer occupancy (ticks)
system.tol3bus.reqLayer0.utilization              2.9                       # Layer utilization (%)
system.tol3bus.respLayer0.occupancy            696696                       # Layer occupancy (ticks)
system.tol3bus.respLayer0.utilization             2.4                       # Layer utilization (%)
system.tol3bus.snoopTraffic                     52992                       # Total snoop traffic (bytes)
system.tol3bus.snoop_fanout::samples             2463                       # Request fanout histogram
system.tol3bus.snoop_fanout::mean                   0                       # Request fanout histogram
system.tol3bus.snoop_fanout::stdev                  0                       # Request fanout histogram
system.tol3bus.snoop_fanout::underflows             0      0.00%      0.00% # Request fanout histogram
system.tol3bus.snoop_fanout::0                   2463    100.00%    100.00% # Request fanout histogram
system.tol3bus.snoop_fanout::1                      0      0.00%    100.00% # Request fanout histogram
system.tol3bus.snoop_fanout::overflows              0      0.00%    100.00% # Request fanout histogram
system.tol3bus.snoop_fanout::min_value              0                       # Request fanout histogram
system.tol3bus.snoop_fanout::max_value              0                       # Request fanout histogram
system.tol3bus.snoop_fanout::total               2463                       # Request fanout histogram
system.tol3bus.snoop_filter.hit_multi_requests            0                       # Number of requests hitting in the snoop filter with multiple (>1) holders of the requested data.
system.tol3bus.snoop_filter.hit_multi_snoops            0                       # Number of snoops hitting in the snoop filter with multiple (>1) holders of the requested data.
system.tol3bus.snoop_filter.hit_single_requests          828                       # Number of requests hitting in the snoop filter with a single holder of the requested data.
system.tol3bus.snoop_filter.hit_single_snoops            0                       # Number of snoops hitting in the snoop filter with a single holder of the requested data.
system.tol3bus.snoop_filter.tot_requests         1656                       # Total number of requests made to the snoop filter.
system.tol3bus.snoop_filter.tot_snoops              0                       # Total number of snoops made to the snoop filter.
system.tol3bus.snoops                            1635                       # Total snoops (count)
system.tol3bus.trans_dist::ReadResp               548                       # Transaction distribution
system.tol3bus.trans_dist::WritebackDirty         1656                       # Transaction distribution
system.tol3bus.trans_dist::HardPFReq              807                       # Transaction distribution
system.tol3bus.trans_dist::ReadExReq              280                       # Transaction distribution
system.tol3bus.trans_dist::ReadExResp             280                       # Transaction distribution
system.tol3bus.trans_dist::ReadSharedReq          548                       # Transaction distribution
system.bridge.pwrStateResidencyTicks::UNDEFINED     28652000                       # Cumulative time (in ticks) in various power states
system.voltage_domain.voltage                       1                       # Voltage in Volts
system.membus.pwrStateResidencyTicks::UNDEFINED     28652000                       # Cumulative time (in ticks) in various power states
system.membus.badaddr_responder.pwrStateResidencyTicks::UNDEFINED     28652000                       # Cumulative time (in ticks) in various power states
system.apicbridge.pwrStateResidencyTicks::UNDEFINED     28652000                       # Cumulative time (in ticks) in various power states
system.tol3bus.pwrStateResidencyTicks::UNDEFINED     28652000                       # Cumulative time (in ticks) in various power states
system.switch_cpus.pwrStateResidencyTicks::OFF     28652000                       # Cumulative time (in ticks) in various power states
system.switch_cpus.dtb.walker.pwrStateResidencyTicks::UNDEFINED     28652000                       # Cumulative time (in ticks) in various power states
system.switch_cpus.itb.walker.pwrStateResidencyTicks::UNDEFINED     28652000                       # Cumulative time (in ticks) in various power states
system.clk_domain.clock                          1000                       # Clock period in ticks
system.pc.fake_com_4.pwrStateResidencyTicks::UNDEFINED     28652000                       # Cumulative time (in ticks) in various power states
system.pc.fake_com_2.pwrStateResidencyTicks::UNDEFINED     28652000                       # Cumulative time (in ticks) in various power states
system.pc.fake_com_3.pwrStateResidencyTicks::UNDEFINED     28652000                       # Cumulative time (in ticks) in various power states
system.pc.south_bridge.io_apic.pwrStateResidencyTicks::UNDEFINED     28652000                       # Cumulative time (in ticks) in various power states
system.pc.south_bridge.pic1.pwrStateResidencyTicks::UNDEFINED     28652000                       # Cumulative time (in ticks) in various power states
system.pc.south_bridge.pic2.pwrStateResidencyTicks::UNDEFINED     28652000                       # Cumulative time (in ticks) in various power states
system.pc.south_bridge.dma1.pwrStateResidencyTicks::UNDEFINED     28652000                       # Cumulative time (in ticks) in various power states
system.pc.south_bridge.speaker.pwrStateResidencyTicks::UNDEFINED     28652000                       # Cumulative time (in ticks) in various power states
system.pc.south_bridge.keyboard.pwrStateResidencyTicks::UNDEFINED     28652000                       # Cumulative time (in ticks) in various power states
system.pc.south_bridge.ide.pwrStateResidencyTicks::UNDEFINED     28652000                       # Cumulative time (in ticks) in various power states
system.pc.south_bridge.pit.pwrStateResidencyTicks::UNDEFINED     28652000                       # Cumulative time (in ticks) in various power states
system.pc.south_bridge.cmos.pwrStateResidencyTicks::UNDEFINED     28652000                       # Cumulative time (in ticks) in various power states
system.pc.i_dont_exist2.pwrStateResidencyTicks::UNDEFINED     28652000                       # Cumulative time (in ticks) in various power states
system.pc.i_dont_exist1.pwrStateResidencyTicks::UNDEFINED     28652000                       # Cumulative time (in ticks) in various power states
system.pc.com_1.pwrStateResidencyTicks::UNDEFINED     28652000                       # Cumulative time (in ticks) in various power states
system.pc.fake_floppy.pwrStateResidencyTicks::UNDEFINED     28652000                       # Cumulative time (in ticks) in various power states
system.pc.behind_pci.pwrStateResidencyTicks::UNDEFINED     28652000                       # Cumulative time (in ticks) in various power states
system.pc.pci_host.pwrStateResidencyTicks::UNDEFINED     28652000                       # Cumulative time (in ticks) in various power states
system.cpu_clk_domain.clock                       250                       # Clock period in ticks
system.iocache.pwrStateResidencyTicks::UNDEFINED     28652000                       # Cumulative time (in ticks) in various power states
system.iocache.tlbTagged.walker.pwrStateResidencyTicks::UNDEFINED     28652000                       # Cumulative time (in ticks) in various power states
system.iocache.tags.pwrStateResidencyTicks::UNDEFINED     28652000                       # Cumulative time (in ticks) in various power states
system.mem_ctrls0.pwrStateResidencyTicks::UNDEFINED     28652000                       # Cumulative time (in ticks) in various power states
system.mem_ctrls1.pwrStateResidencyTicks::UNDEFINED     28652000                       # Cumulative time (in ticks) in various power states
system.l3.pwrStateResidencyTicks::UNDEFINED     28652000                       # Cumulative time (in ticks) in various power states
system.l3.tlbTagged.walker.pwrStateResidencyTicks::UNDEFINED     28652000                       # Cumulative time (in ticks) in various power states
system.l3.prefetcher.pwrStateResidencyTicks::UNDEFINED     28652000                       # Cumulative time (in ticks) in various power states
system.l3.tags.pwrStateResidencyTicks::UNDEFINED     28652000                       # Cumulative time (in ticks) in various power states
system.cpu_voltage_domain.voltage                   1                       # Voltage in Volts
system.iobus.pwrStateResidencyTicks::UNDEFINED     28652000                       # Cumulative time (in ticks) in various power states
system.cpu.pwrStateResidencyTicks::OFF       28652000                       # Cumulative time (in ticks) in various power states
system.cpu.icache.pwrStateResidencyTicks::UNDEFINED     28652000                       # Cumulative time (in ticks) in various power states
system.cpu.icache.tlbTagged.walker.pwrStateResidencyTicks::UNDEFINED     28652000                       # Cumulative time (in ticks) in various power states
system.cpu.icache.tags.pwrStateResidencyTicks::UNDEFINED     28652000                       # Cumulative time (in ticks) in various power states
system.cpu.dtb.walker.pwrStateResidencyTicks::UNDEFINED     28652000                       # Cumulative time (in ticks) in various power states
system.cpu.interrupts.pwrStateResidencyTicks::UNDEFINED     28652000                       # Cumulative time (in ticks) in various power states
system.cpu.interrupts.clk_domain.clock           4000                       # Clock period in ticks
system.cpu.itb_walker_cache.pwrStateResidencyTicks::UNDEFINED     28652000                       # Cumulative time (in ticks) in various power states
system.cpu.itb_walker_cache.tlbTagged.walker.pwrStateResidencyTicks::UNDEFINED     28652000                       # Cumulative time (in ticks) in various power states
system.cpu.itb_walker_cache.tags.pwrStateResidencyTicks::UNDEFINED     28652000                       # Cumulative time (in ticks) in various power states
system.cpu.itb.walker.pwrStateResidencyTicks::UNDEFINED     28652000                       # Cumulative time (in ticks) in various power states
system.cpu.dtb_walker_cache.pwrStateResidencyTicks::UNDEFINED     28652000                       # Cumulative time (in ticks) in various power states
system.cpu.dtb_walker_cache.tlbTagged.walker.pwrStateResidencyTicks::UNDEFINED     28652000                       # Cumulative time (in ticks) in various power states
system.cpu.dtb_walker_cache.tags.pwrStateResidencyTicks::UNDEFINED     28652000                       # Cumulative time (in ticks) in various power states
system.cpu.dcache.pwrStateResidencyTicks::UNDEFINED     28652000                       # Cumulative time (in ticks) in various power states
system.cpu.dcache.tlbTagged.walker.pwrStateResidencyTicks::UNDEFINED     28652000                       # Cumulative time (in ticks) in various power states
system.cpu.dcache.tags.pwrStateResidencyTicks::UNDEFINED     28652000                       # Cumulative time (in ticks) in various power states
system.cpu.l2cache.pwrStateResidencyTicks::UNDEFINED     28652000                       # Cumulative time (in ticks) in various power states
system.cpu.l2cache.tlbTagged.walker.pwrStateResidencyTicks::UNDEFINED     28652000                       # Cumulative time (in ticks) in various power states
system.cpu.l2cache.prefetcher.pwrStateResidencyTicks::UNDEFINED     28652000                       # Cumulative time (in ticks) in various power states
system.cpu.l2cache.tags.pwrStateResidencyTicks::UNDEFINED     28652000                       # Cumulative time (in ticks) in various power states
system.cpu.toL2Bus.pwrStateResidencyTicks::UNDEFINED     28652000                       # Cumulative time (in ticks) in various power states

---------- End Simulation Statistics   ----------
