
---------- Begin Simulation Statistics ----------
final_tick                               807554206940000                       # Number of ticks from beginning of simulation (restored from checkpoints and never reset)
host_inst_rate                                  33006                       # Simulator instruction rate (inst/s)
host_mem_usage                               17072832                       # Number of bytes of host memory used
host_op_rate                                    54987                       # Simulator op (including micro ops) rate (op/s)
host_seconds                                  3029.75                       # Real time elapsed on the host
host_tick_rate                               94249293                       # Simulator tick rate (ticks/s)
sim_freq                                 1000000000000                       # Frequency of simulated ticks
sim_insts                                   100000000                       # Number of instructions simulated
sim_ops                                     166595613                       # Number of ops (including micro ops) simulated
sim_seconds                                  0.285552                       # Number of seconds simulated
sim_ticks                                285551720750                       # Number of ticks simulated
system.cpu.committedInsts                           0                       # Number of instructions committed
system.cpu.dcache.DataMeta::0                       0                       # Distribution of access
system.cpu.dcache.DataMeta::1                       0                       # Distribution of access
system.cpu.dcache.DataMeta::2                       0                       # Distribution of access
system.cpu.dcache.DataMeta::3                       0                       # Distribution of access
system.cpu.dcache.ReadReq_accesses::.switch_cpus.data     13517629                       # number of ReadReq accesses(hits+misses)
system.cpu.dcache.ReadReq_accesses::total     13517629                       # number of ReadReq accesses(hits+misses)
system.cpu.dcache.ReadReq_avg_miss_latency::.switch_cpus.data 77636.034851                       # average ReadReq miss latency
system.cpu.dcache.ReadReq_avg_miss_latency::total 77636.034851                       # average ReadReq miss latency
system.cpu.dcache.ReadReq_avg_mshr_miss_latency::.switch_cpus.data 78560.619939                       # average ReadReq mshr miss latency
system.cpu.dcache.ReadReq_avg_mshr_miss_latency::total 78560.619939                       # average ReadReq mshr miss latency
system.cpu.dcache.ReadReq_hits::.switch_cpus.data     10682679                       # number of ReadReq hits
system.cpu.dcache.ReadReq_hits::total        10682679                       # number of ReadReq hits
system.cpu.dcache.ReadReq_miss_latency::.switch_cpus.data 220094277000                       # number of ReadReq miss cycles
system.cpu.dcache.ReadReq_miss_latency::total 220094277000                       # number of ReadReq miss cycles
system.cpu.dcache.ReadReq_miss_rate::.switch_cpus.data     0.209722                       # miss rate for ReadReq accesses
system.cpu.dcache.ReadReq_miss_rate::total     0.209722                       # miss rate for ReadReq accesses
system.cpu.dcache.ReadReq_misses::.switch_cpus.data      2834950                       # number of ReadReq misses
system.cpu.dcache.ReadReq_misses::total       2834950                       # number of ReadReq misses
system.cpu.dcache.ReadReq_mshr_hits::.switch_cpus.data      1903165                       # number of ReadReq MSHR hits
system.cpu.dcache.ReadReq_mshr_hits::total      1903165                       # number of ReadReq MSHR hits
system.cpu.dcache.ReadReq_mshr_miss_latency::.switch_cpus.data  73201607250                       # number of ReadReq MSHR miss cycles
system.cpu.dcache.ReadReq_mshr_miss_latency::total  73201607250                       # number of ReadReq MSHR miss cycles
system.cpu.dcache.ReadReq_mshr_miss_rate::.switch_cpus.data     0.068931                       # mshr miss rate for ReadReq accesses
system.cpu.dcache.ReadReq_mshr_miss_rate::total     0.068931                       # mshr miss rate for ReadReq accesses
system.cpu.dcache.ReadReq_mshr_misses::.switch_cpus.data       931785                       # number of ReadReq MSHR misses
system.cpu.dcache.ReadReq_mshr_misses::total       931785                       # number of ReadReq MSHR misses
system.cpu.dcache.SoftPFReq_accesses::.switch_cpus.data           52                       # number of SoftPFReq accesses(hits+misses)
system.cpu.dcache.SoftPFReq_accesses::total           52                       # number of SoftPFReq accesses(hits+misses)
system.cpu.dcache.SoftPFReq_avg_mshr_miss_latency::.switch_cpus.data 69553.571429                       # average SoftPFReq mshr miss latency
system.cpu.dcache.SoftPFReq_avg_mshr_miss_latency::total 69553.571429                       # average SoftPFReq mshr miss latency
system.cpu.dcache.SoftPFReq_hits::.switch_cpus.data           10                       # number of SoftPFReq hits
system.cpu.dcache.SoftPFReq_hits::total            10                       # number of SoftPFReq hits
system.cpu.dcache.SoftPFReq_miss_rate::.switch_cpus.data     0.807692                       # miss rate for SoftPFReq accesses
system.cpu.dcache.SoftPFReq_miss_rate::total     0.807692                       # miss rate for SoftPFReq accesses
system.cpu.dcache.SoftPFReq_misses::.switch_cpus.data           42                       # number of SoftPFReq misses
system.cpu.dcache.SoftPFReq_misses::total           42                       # number of SoftPFReq misses
system.cpu.dcache.SoftPFReq_mshr_miss_latency::.switch_cpus.data      2921250                       # number of SoftPFReq MSHR miss cycles
system.cpu.dcache.SoftPFReq_mshr_miss_latency::total      2921250                       # number of SoftPFReq MSHR miss cycles
system.cpu.dcache.SoftPFReq_mshr_miss_rate::.switch_cpus.data     0.807692                       # mshr miss rate for SoftPFReq accesses
system.cpu.dcache.SoftPFReq_mshr_miss_rate::total     0.807692                       # mshr miss rate for SoftPFReq accesses
system.cpu.dcache.SoftPFReq_mshr_misses::.switch_cpus.data           42                       # number of SoftPFReq MSHR misses
system.cpu.dcache.SoftPFReq_mshr_misses::total           42                       # number of SoftPFReq MSHR misses
system.cpu.dcache.WriteReq_accesses::.switch_cpus.data     37944202                       # number of WriteReq accesses(hits+misses)
system.cpu.dcache.WriteReq_accesses::total     37944202                       # number of WriteReq accesses(hits+misses)
system.cpu.dcache.WriteReq_avg_miss_latency::.switch_cpus.data 76897.146171                       # average WriteReq miss latency
system.cpu.dcache.WriteReq_avg_miss_latency::total 76897.146171                       # average WriteReq miss latency
system.cpu.dcache.WriteReq_avg_mshr_miss_latency::.switch_cpus.data 77704.855528                       # average WriteReq mshr miss latency
system.cpu.dcache.WriteReq_avg_mshr_miss_latency::total 77704.855528                       # average WriteReq mshr miss latency
system.cpu.dcache.WriteReq_hits::.switch_cpus.data     34765560                       # number of WriteReq hits
system.cpu.dcache.WriteReq_hits::total       34765560                       # number of WriteReq hits
system.cpu.dcache.WriteReq_miss_latency::.switch_cpus.data 244428498500                       # number of WriteReq miss cycles
system.cpu.dcache.WriteReq_miss_latency::total 244428498500                       # number of WriteReq miss cycles
system.cpu.dcache.WriteReq_miss_rate::.switch_cpus.data     0.083771                       # miss rate for WriteReq accesses
system.cpu.dcache.WriteReq_miss_rate::total     0.083771                       # miss rate for WriteReq accesses
system.cpu.dcache.WriteReq_misses::.switch_cpus.data      3178642                       # number of WriteReq misses
system.cpu.dcache.WriteReq_misses::total      3178642                       # number of WriteReq misses
system.cpu.dcache.WriteReq_mshr_hits::.switch_cpus.data        46470                       # number of WriteReq MSHR hits
system.cpu.dcache.WriteReq_mshr_hits::total        46470                       # number of WriteReq MSHR hits
system.cpu.dcache.WriteReq_mshr_miss_latency::.switch_cpus.data 243384972750                       # number of WriteReq MSHR miss cycles
system.cpu.dcache.WriteReq_mshr_miss_latency::total 243384972750                       # number of WriteReq MSHR miss cycles
system.cpu.dcache.WriteReq_mshr_miss_rate::.switch_cpus.data     0.082547                       # mshr miss rate for WriteReq accesses
system.cpu.dcache.WriteReq_mshr_miss_rate::total     0.082547                       # mshr miss rate for WriteReq accesses
system.cpu.dcache.WriteReq_mshr_misses::.switch_cpus.data      3132172                       # number of WriteReq MSHR misses
system.cpu.dcache.WriteReq_mshr_misses::total      3132172                       # number of WriteReq MSHR misses
system.cpu.dcache.WriteReq_mshr_uncacheable::.switch_cpus.data          286                       # number of WriteReq MSHR uncacheable
system.cpu.dcache.WriteReq_mshr_uncacheable::total          286                       # number of WriteReq MSHR uncacheable
system.cpu.dcache.avg_blocked_cycles::no_mshrs          nan                       # average number of cycles each access was blocked
system.cpu.dcache.avg_blocked_cycles::no_targets   229.250000                       # average number of cycles each access was blocked
system.cpu.dcache.blocked::no_mshrs                 0                       # number of cycles access was blocked
system.cpu.dcache.blocked::no_targets               4                       # number of cycles access was blocked
system.cpu.dcache.blocked_cycles::no_mshrs            0                       # number of cycles access was blocked
system.cpu.dcache.blocked_cycles::no_targets          917                       # number of cycles access was blocked
system.cpu.dcache.demand_accesses::.switch_cpus.data     51461831                       # number of demand (read+write) accesses
system.cpu.dcache.demand_accesses::total     51461831                       # number of demand (read+write) accesses
system.cpu.dcache.demand_avg_miss_latency::.switch_cpus.data 77245.475832                       # average overall miss latency
system.cpu.dcache.demand_avg_miss_latency::total 77245.475832                       # average overall miss latency
system.cpu.dcache.demand_avg_mshr_miss_latency::.switch_cpus.data 77901.065390                       # average overall mshr miss latency
system.cpu.dcache.demand_avg_mshr_miss_latency::total 77901.065390                       # average overall mshr miss latency
system.cpu.dcache.demand_hits::.switch_cpus.data     45448239                       # number of demand (read+write) hits
system.cpu.dcache.demand_hits::total         45448239                       # number of demand (read+write) hits
system.cpu.dcache.demand_miss_latency::.switch_cpus.data 464522775500                       # number of demand (read+write) miss cycles
system.cpu.dcache.demand_miss_latency::total 464522775500                       # number of demand (read+write) miss cycles
system.cpu.dcache.demand_miss_rate::.switch_cpus.data     0.116855                       # miss rate for demand accesses
system.cpu.dcache.demand_miss_rate::total     0.116855                       # miss rate for demand accesses
system.cpu.dcache.demand_misses::.switch_cpus.data      6013592                       # number of demand (read+write) misses
system.cpu.dcache.demand_misses::total        6013592                       # number of demand (read+write) misses
system.cpu.dcache.demand_mshr_hits::.switch_cpus.data      1949635                       # number of demand (read+write) MSHR hits
system.cpu.dcache.demand_mshr_hits::total      1949635                       # number of demand (read+write) MSHR hits
system.cpu.dcache.demand_mshr_miss_latency::.switch_cpus.data 316586580000                       # number of demand (read+write) MSHR miss cycles
system.cpu.dcache.demand_mshr_miss_latency::total 316586580000                       # number of demand (read+write) MSHR miss cycles
system.cpu.dcache.demand_mshr_miss_rate::.switch_cpus.data     0.078970                       # mshr miss rate for demand accesses
system.cpu.dcache.demand_mshr_miss_rate::total     0.078970                       # mshr miss rate for demand accesses
system.cpu.dcache.demand_mshr_misses::.switch_cpus.data      4063957                       # number of demand (read+write) MSHR misses
system.cpu.dcache.demand_mshr_misses::total      4063957                       # number of demand (read+write) MSHR misses
system.cpu.dcache.overall_accesses::.switch_cpus.data     51461883                       # number of overall (read+write) accesses
system.cpu.dcache.overall_accesses::total     51461883                       # number of overall (read+write) accesses
system.cpu.dcache.overall_avg_miss_latency::.switch_cpus.data 77244.936340                       # average overall miss latency
system.cpu.dcache.overall_avg_miss_latency::total 77244.936340                       # average overall miss latency
system.cpu.dcache.overall_avg_mshr_miss_latency::.switch_cpus.data 77900.979122                       # average overall mshr miss latency
system.cpu.dcache.overall_avg_mshr_miss_latency::total 77900.979122                       # average overall mshr miss latency
system.cpu.dcache.overall_hits::.switch_cpus.data     45448249                       # number of overall hits
system.cpu.dcache.overall_hits::total        45448249                       # number of overall hits
system.cpu.dcache.overall_miss_latency::.switch_cpus.data 464522775500                       # number of overall miss cycles
system.cpu.dcache.overall_miss_latency::total 464522775500                       # number of overall miss cycles
system.cpu.dcache.overall_miss_rate::.switch_cpus.data     0.116856                       # miss rate for overall accesses
system.cpu.dcache.overall_miss_rate::total     0.116856                       # miss rate for overall accesses
system.cpu.dcache.overall_misses::.switch_cpus.data      6013634                       # number of overall misses
system.cpu.dcache.overall_misses::total       6013634                       # number of overall misses
system.cpu.dcache.overall_mshr_hits::.switch_cpus.data      1949635                       # number of overall MSHR hits
system.cpu.dcache.overall_mshr_hits::total      1949635                       # number of overall MSHR hits
system.cpu.dcache.overall_mshr_miss_latency::.switch_cpus.data 316589501250                       # number of overall MSHR miss cycles
system.cpu.dcache.overall_mshr_miss_latency::total 316589501250                       # number of overall MSHR miss cycles
system.cpu.dcache.overall_mshr_miss_rate::.switch_cpus.data     0.078971                       # mshr miss rate for overall accesses
system.cpu.dcache.overall_mshr_miss_rate::total     0.078971                       # mshr miss rate for overall accesses
system.cpu.dcache.overall_mshr_misses::.switch_cpus.data      4063999                       # number of overall MSHR misses
system.cpu.dcache.overall_mshr_misses::total      4063999                       # number of overall MSHR misses
system.cpu.dcache.overall_mshr_uncacheable_misses::.switch_cpus.data          286                       # number of overall MSHR uncacheable misses
system.cpu.dcache.overall_mshr_uncacheable_misses::total          286                       # number of overall MSHR uncacheable misses
system.cpu.dcache.replacements                4049989                       # number of replacements
system.cpu.dcache.tags.age_task_id_blocks_1025::0          111                       # Occupied blocks per task id
system.cpu.dcache.tags.age_task_id_blocks_1025::1          870                       # Occupied blocks per task id
system.cpu.dcache.tags.age_task_id_blocks_1025::2           41                       # Occupied blocks per task id
system.cpu.dcache.tags.age_task_id_blocks_1025::3            2                       # Occupied blocks per task id
system.cpu.dcache.tags.avg_refs             11.800336                       # Average number of references to valid blocks.
system.cpu.dcache.tags.data_accesses        415746077                       # Number of data accesses
system.cpu.dcache.tags.occ_blocks::.switch_cpus.data  1023.899328                       # Average occupied blocks per requestor
system.cpu.dcache.tags.occ_percent::.switch_cpus.data     0.999902                       # Average percentage of cache occupancy
system.cpu.dcache.tags.occ_percent::total     0.999902                       # Average percentage of cache occupancy
system.cpu.dcache.tags.occ_task_id_blocks::1025         1024                       # Occupied blocks per task id
system.cpu.dcache.tags.occ_task_id_percent::1025            1                       # Percentage of cache occupancy per task id
system.cpu.dcache.tags.sampled_refs           4049989                       # Sample count of references to valid blocks.
system.cpu.dcache.tags.tag_accesses         415746077                       # Number of tag accesses
system.cpu.dcache.tags.tagsinuse          1023.899328                       # Cycle average of tags in use
system.cpu.dcache.tags.total_refs            47791231                       # Total number of references to valid blocks.
system.cpu.dcache.tags.warmup_cycle      807268655738000                       # Cycle when the warmup percentage was hit.
system.cpu.dcache.tlbTagged.rdAccesses              0                       # TLB accesses on read requests
system.cpu.dcache.tlbTagged.rdMisses                0                       # TLB misses on read requests
system.cpu.dcache.tlbTagged.wrAccesses              0                       # TLB accesses on write requests
system.cpu.dcache.tlbTagged.wrMisses                0                       # TLB misses on write requests
system.cpu.dcache.writebacks::.writebacks      3214717                       # number of writebacks
system.cpu.dcache.writebacks::total           3214717                       # number of writebacks
system.cpu.dtb.rdAccesses                           0                       # TLB accesses on read requests
system.cpu.dtb.rdMisses                             0                       # TLB misses on read requests
system.cpu.dtb.wrAccesses                           0                       # TLB accesses on write requests
system.cpu.dtb.wrMisses                             0                       # TLB misses on write requests
system.cpu.dtb_walker_cache.DataMeta::0             0                       # Distribution of access
system.cpu.dtb_walker_cache.DataMeta::1             0                       # Distribution of access
system.cpu.dtb_walker_cache.DataMeta::2             0                       # Distribution of access
system.cpu.dtb_walker_cache.DataMeta::3             0                       # Distribution of access
system.cpu.dtb_walker_cache.ReadReq_accesses::.switch_cpus.dtb.walker        19731                       # number of ReadReq accesses(hits+misses)
system.cpu.dtb_walker_cache.ReadReq_accesses::total        19731                       # number of ReadReq accesses(hits+misses)
system.cpu.dtb_walker_cache.ReadReq_avg_miss_latency::.switch_cpus.dtb.walker 12300.472727                       # average ReadReq miss latency
system.cpu.dtb_walker_cache.ReadReq_avg_miss_latency::total 12300.472727                       # average ReadReq miss latency
system.cpu.dtb_walker_cache.ReadReq_avg_mshr_miss_latency::.switch_cpus.dtb.walker 11800.472727                       # average ReadReq mshr miss latency
system.cpu.dtb_walker_cache.ReadReq_avg_mshr_miss_latency::total 11800.472727                       # average ReadReq mshr miss latency
system.cpu.dtb_walker_cache.ReadReq_hits::.switch_cpus.dtb.walker        12856                       # number of ReadReq hits
system.cpu.dtb_walker_cache.ReadReq_hits::total        12856                       # number of ReadReq hits
system.cpu.dtb_walker_cache.ReadReq_miss_latency::.switch_cpus.dtb.walker     84565750                       # number of ReadReq miss cycles
system.cpu.dtb_walker_cache.ReadReq_miss_latency::total     84565750                       # number of ReadReq miss cycles
system.cpu.dtb_walker_cache.ReadReq_miss_rate::.switch_cpus.dtb.walker     0.348436                       # miss rate for ReadReq accesses
system.cpu.dtb_walker_cache.ReadReq_miss_rate::total     0.348436                       # miss rate for ReadReq accesses
system.cpu.dtb_walker_cache.ReadReq_misses::.switch_cpus.dtb.walker         6875                       # number of ReadReq misses
system.cpu.dtb_walker_cache.ReadReq_misses::total         6875                       # number of ReadReq misses
system.cpu.dtb_walker_cache.ReadReq_mshr_miss_latency::.switch_cpus.dtb.walker     81128250                       # number of ReadReq MSHR miss cycles
system.cpu.dtb_walker_cache.ReadReq_mshr_miss_latency::total     81128250                       # number of ReadReq MSHR miss cycles
system.cpu.dtb_walker_cache.ReadReq_mshr_miss_rate::.switch_cpus.dtb.walker     0.348436                       # mshr miss rate for ReadReq accesses
system.cpu.dtb_walker_cache.ReadReq_mshr_miss_rate::total     0.348436                       # mshr miss rate for ReadReq accesses
system.cpu.dtb_walker_cache.ReadReq_mshr_misses::.switch_cpus.dtb.walker         6875                       # number of ReadReq MSHR misses
system.cpu.dtb_walker_cache.ReadReq_mshr_misses::total         6875                       # number of ReadReq MSHR misses
system.cpu.dtb_walker_cache.avg_blocked_cycles::no_mshrs          nan                       # average number of cycles each access was blocked
system.cpu.dtb_walker_cache.avg_blocked_cycles::no_targets          nan                       # average number of cycles each access was blocked
system.cpu.dtb_walker_cache.blocked::no_mshrs            0                       # number of cycles access was blocked
system.cpu.dtb_walker_cache.blocked::no_targets            0                       # number of cycles access was blocked
system.cpu.dtb_walker_cache.blocked_cycles::no_mshrs            0                       # number of cycles access was blocked
system.cpu.dtb_walker_cache.blocked_cycles::no_targets            0                       # number of cycles access was blocked
system.cpu.dtb_walker_cache.demand_accesses::.switch_cpus.dtb.walker        19731                       # number of demand (read+write) accesses
system.cpu.dtb_walker_cache.demand_accesses::total        19731                       # number of demand (read+write) accesses
system.cpu.dtb_walker_cache.demand_avg_miss_latency::.switch_cpus.dtb.walker 12300.472727                       # average overall miss latency
system.cpu.dtb_walker_cache.demand_avg_miss_latency::total 12300.472727                       # average overall miss latency
system.cpu.dtb_walker_cache.demand_avg_mshr_miss_latency::.switch_cpus.dtb.walker 11800.472727                       # average overall mshr miss latency
system.cpu.dtb_walker_cache.demand_avg_mshr_miss_latency::total 11800.472727                       # average overall mshr miss latency
system.cpu.dtb_walker_cache.demand_hits::.switch_cpus.dtb.walker        12856                       # number of demand (read+write) hits
system.cpu.dtb_walker_cache.demand_hits::total        12856                       # number of demand (read+write) hits
system.cpu.dtb_walker_cache.demand_miss_latency::.switch_cpus.dtb.walker     84565750                       # number of demand (read+write) miss cycles
system.cpu.dtb_walker_cache.demand_miss_latency::total     84565750                       # number of demand (read+write) miss cycles
system.cpu.dtb_walker_cache.demand_miss_rate::.switch_cpus.dtb.walker     0.348436                       # miss rate for demand accesses
system.cpu.dtb_walker_cache.demand_miss_rate::total     0.348436                       # miss rate for demand accesses
system.cpu.dtb_walker_cache.demand_misses::.switch_cpus.dtb.walker         6875                       # number of demand (read+write) misses
system.cpu.dtb_walker_cache.demand_misses::total         6875                       # number of demand (read+write) misses
system.cpu.dtb_walker_cache.demand_mshr_miss_latency::.switch_cpus.dtb.walker     81128250                       # number of demand (read+write) MSHR miss cycles
system.cpu.dtb_walker_cache.demand_mshr_miss_latency::total     81128250                       # number of demand (read+write) MSHR miss cycles
system.cpu.dtb_walker_cache.demand_mshr_miss_rate::.switch_cpus.dtb.walker     0.348436                       # mshr miss rate for demand accesses
system.cpu.dtb_walker_cache.demand_mshr_miss_rate::total     0.348436                       # mshr miss rate for demand accesses
system.cpu.dtb_walker_cache.demand_mshr_misses::.switch_cpus.dtb.walker         6875                       # number of demand (read+write) MSHR misses
system.cpu.dtb_walker_cache.demand_mshr_misses::total         6875                       # number of demand (read+write) MSHR misses
system.cpu.dtb_walker_cache.overall_accesses::.switch_cpus.dtb.walker        19731                       # number of overall (read+write) accesses
system.cpu.dtb_walker_cache.overall_accesses::total        19731                       # number of overall (read+write) accesses
system.cpu.dtb_walker_cache.overall_avg_miss_latency::.switch_cpus.dtb.walker 12300.472727                       # average overall miss latency
system.cpu.dtb_walker_cache.overall_avg_miss_latency::total 12300.472727                       # average overall miss latency
system.cpu.dtb_walker_cache.overall_avg_mshr_miss_latency::.switch_cpus.dtb.walker 11800.472727                       # average overall mshr miss latency
system.cpu.dtb_walker_cache.overall_avg_mshr_miss_latency::total 11800.472727                       # average overall mshr miss latency
system.cpu.dtb_walker_cache.overall_hits::.switch_cpus.dtb.walker        12856                       # number of overall hits
system.cpu.dtb_walker_cache.overall_hits::total        12856                       # number of overall hits
system.cpu.dtb_walker_cache.overall_miss_latency::.switch_cpus.dtb.walker     84565750                       # number of overall miss cycles
system.cpu.dtb_walker_cache.overall_miss_latency::total     84565750                       # number of overall miss cycles
system.cpu.dtb_walker_cache.overall_miss_rate::.switch_cpus.dtb.walker     0.348436                       # miss rate for overall accesses
system.cpu.dtb_walker_cache.overall_miss_rate::total     0.348436                       # miss rate for overall accesses
system.cpu.dtb_walker_cache.overall_misses::.switch_cpus.dtb.walker         6875                       # number of overall misses
system.cpu.dtb_walker_cache.overall_misses::total         6875                       # number of overall misses
system.cpu.dtb_walker_cache.overall_mshr_miss_latency::.switch_cpus.dtb.walker     81128250                       # number of overall MSHR miss cycles
system.cpu.dtb_walker_cache.overall_mshr_miss_latency::total     81128250                       # number of overall MSHR miss cycles
system.cpu.dtb_walker_cache.overall_mshr_miss_rate::.switch_cpus.dtb.walker     0.348436                       # mshr miss rate for overall accesses
system.cpu.dtb_walker_cache.overall_mshr_miss_rate::total     0.348436                       # mshr miss rate for overall accesses
system.cpu.dtb_walker_cache.overall_mshr_misses::.switch_cpus.dtb.walker         6875                       # number of overall MSHR misses
system.cpu.dtb_walker_cache.overall_mshr_misses::total         6875                       # number of overall MSHR misses
system.cpu.dtb_walker_cache.replacements         6818                       # number of replacements
system.cpu.dtb_walker_cache.tags.age_task_id_blocks_1025::2            2                       # Occupied blocks per task id
system.cpu.dtb_walker_cache.tags.age_task_id_blocks_1025::3            3                       # Occupied blocks per task id
system.cpu.dtb_walker_cache.tags.age_task_id_blocks_1025::4           11                       # Occupied blocks per task id
system.cpu.dtb_walker_cache.tags.avg_refs     2.833358                       # Average number of references to valid blocks.
system.cpu.dtb_walker_cache.tags.data_accesses        46337                       # Number of data accesses
system.cpu.dtb_walker_cache.tags.occ_blocks::.switch_cpus.dtb.walker    15.883911                       # Average occupied blocks per requestor
system.cpu.dtb_walker_cache.tags.occ_percent::.switch_cpus.dtb.walker     0.992744                       # Average percentage of cache occupancy
system.cpu.dtb_walker_cache.tags.occ_percent::total     0.992744                       # Average percentage of cache occupancy
system.cpu.dtb_walker_cache.tags.occ_task_id_blocks::1025           16                       # Occupied blocks per task id
system.cpu.dtb_walker_cache.tags.occ_task_id_percent::1025            1                       # Percentage of cache occupancy per task id
system.cpu.dtb_walker_cache.tags.sampled_refs         6859                       # Sample count of references to valid blocks.
system.cpu.dtb_walker_cache.tags.tag_accesses        46337                       # Number of tag accesses
system.cpu.dtb_walker_cache.tags.tagsinuse    15.883911                       # Cycle average of tags in use
system.cpu.dtb_walker_cache.tags.total_refs        19434                       # Total number of references to valid blocks.
system.cpu.dtb_walker_cache.tags.warmup_cycle 807268655602000                       # Cycle when the warmup percentage was hit.
system.cpu.dtb_walker_cache.tlbTagged.rdAccesses            0                       # TLB accesses on read requests
system.cpu.dtb_walker_cache.tlbTagged.rdMisses            0                       # TLB misses on read requests
system.cpu.dtb_walker_cache.tlbTagged.wrAccesses            0                       # TLB accesses on write requests
system.cpu.dtb_walker_cache.tlbTagged.wrMisses            0                       # TLB misses on write requests
system.cpu.dtb_walker_cache.writebacks::.writebacks            1                       # number of writebacks
system.cpu.dtb_walker_cache.writebacks::total            1                       # number of writebacks
system.cpu.icache.DataMeta::0                       0                       # Distribution of access
system.cpu.icache.DataMeta::1                       0                       # Distribution of access
system.cpu.icache.DataMeta::2                       0                       # Distribution of access
system.cpu.icache.DataMeta::3                       0                       # Distribution of access
system.cpu.icache.ReadReq_accesses::.switch_cpus.inst      8777360                       # number of ReadReq accesses(hits+misses)
system.cpu.icache.ReadReq_accesses::total      8777360                       # number of ReadReq accesses(hits+misses)
system.cpu.icache.ReadReq_avg_miss_latency::.switch_cpus.inst 37257.026851                       # average ReadReq miss latency
system.cpu.icache.ReadReq_avg_miss_latency::total 37257.026851                       # average ReadReq miss latency
system.cpu.icache.ReadReq_avg_mshr_miss_latency::.switch_cpus.inst 37420.451800                       # average ReadReq mshr miss latency
system.cpu.icache.ReadReq_avg_mshr_miss_latency::total 37420.451800                       # average ReadReq mshr miss latency
system.cpu.icache.ReadReq_hits::.switch_cpus.inst      8755871                       # number of ReadReq hits
system.cpu.icache.ReadReq_hits::total         8755871                       # number of ReadReq hits
system.cpu.icache.ReadReq_miss_latency::.switch_cpus.inst    800616250                       # number of ReadReq miss cycles
system.cpu.icache.ReadReq_miss_latency::total    800616250                       # number of ReadReq miss cycles
system.cpu.icache.ReadReq_miss_rate::.switch_cpus.inst     0.002448                       # miss rate for ReadReq accesses
system.cpu.icache.ReadReq_miss_rate::total     0.002448                       # miss rate for ReadReq accesses
system.cpu.icache.ReadReq_misses::.switch_cpus.inst        21489                       # number of ReadReq misses
system.cpu.icache.ReadReq_misses::total         21489                       # number of ReadReq misses
system.cpu.icache.ReadReq_mshr_hits::.switch_cpus.inst         4933                       # number of ReadReq MSHR hits
system.cpu.icache.ReadReq_mshr_hits::total         4933                       # number of ReadReq MSHR hits
system.cpu.icache.ReadReq_mshr_miss_latency::.switch_cpus.inst    619533000                       # number of ReadReq MSHR miss cycles
system.cpu.icache.ReadReq_mshr_miss_latency::total    619533000                       # number of ReadReq MSHR miss cycles
system.cpu.icache.ReadReq_mshr_miss_rate::.switch_cpus.inst     0.001886                       # mshr miss rate for ReadReq accesses
system.cpu.icache.ReadReq_mshr_miss_rate::total     0.001886                       # mshr miss rate for ReadReq accesses
system.cpu.icache.ReadReq_mshr_misses::.switch_cpus.inst        16556                       # number of ReadReq MSHR misses
system.cpu.icache.ReadReq_mshr_misses::total        16556                       # number of ReadReq MSHR misses
system.cpu.icache.avg_blocked_cycles::no_mshrs          nan                       # average number of cycles each access was blocked
system.cpu.icache.avg_blocked_cycles::no_targets          nan                       # average number of cycles each access was blocked
system.cpu.icache.blocked::no_mshrs                 0                       # number of cycles access was blocked
system.cpu.icache.blocked::no_targets               0                       # number of cycles access was blocked
system.cpu.icache.blocked_cycles::no_mshrs            0                       # number of cycles access was blocked
system.cpu.icache.blocked_cycles::no_targets            0                       # number of cycles access was blocked
system.cpu.icache.demand_accesses::.switch_cpus.inst      8777360                       # number of demand (read+write) accesses
system.cpu.icache.demand_accesses::total      8777360                       # number of demand (read+write) accesses
system.cpu.icache.demand_avg_miss_latency::.switch_cpus.inst 37257.026851                       # average overall miss latency
system.cpu.icache.demand_avg_miss_latency::total 37257.026851                       # average overall miss latency
system.cpu.icache.demand_avg_mshr_miss_latency::.switch_cpus.inst 37420.451800                       # average overall mshr miss latency
system.cpu.icache.demand_avg_mshr_miss_latency::total 37420.451800                       # average overall mshr miss latency
system.cpu.icache.demand_hits::.switch_cpus.inst      8755871                       # number of demand (read+write) hits
system.cpu.icache.demand_hits::total          8755871                       # number of demand (read+write) hits
system.cpu.icache.demand_miss_latency::.switch_cpus.inst    800616250                       # number of demand (read+write) miss cycles
system.cpu.icache.demand_miss_latency::total    800616250                       # number of demand (read+write) miss cycles
system.cpu.icache.demand_miss_rate::.switch_cpus.inst     0.002448                       # miss rate for demand accesses
system.cpu.icache.demand_miss_rate::total     0.002448                       # miss rate for demand accesses
system.cpu.icache.demand_misses::.switch_cpus.inst        21489                       # number of demand (read+write) misses
system.cpu.icache.demand_misses::total          21489                       # number of demand (read+write) misses
system.cpu.icache.demand_mshr_hits::.switch_cpus.inst         4933                       # number of demand (read+write) MSHR hits
system.cpu.icache.demand_mshr_hits::total         4933                       # number of demand (read+write) MSHR hits
system.cpu.icache.demand_mshr_miss_latency::.switch_cpus.inst    619533000                       # number of demand (read+write) MSHR miss cycles
system.cpu.icache.demand_mshr_miss_latency::total    619533000                       # number of demand (read+write) MSHR miss cycles
system.cpu.icache.demand_mshr_miss_rate::.switch_cpus.inst     0.001886                       # mshr miss rate for demand accesses
system.cpu.icache.demand_mshr_miss_rate::total     0.001886                       # mshr miss rate for demand accesses
system.cpu.icache.demand_mshr_misses::.switch_cpus.inst        16556                       # number of demand (read+write) MSHR misses
system.cpu.icache.demand_mshr_misses::total        16556                       # number of demand (read+write) MSHR misses
system.cpu.icache.overall_accesses::.switch_cpus.inst      8777360                       # number of overall (read+write) accesses
system.cpu.icache.overall_accesses::total      8777360                       # number of overall (read+write) accesses
system.cpu.icache.overall_avg_miss_latency::.switch_cpus.inst 37257.026851                       # average overall miss latency
system.cpu.icache.overall_avg_miss_latency::total 37257.026851                       # average overall miss latency
system.cpu.icache.overall_avg_mshr_miss_latency::.switch_cpus.inst 37420.451800                       # average overall mshr miss latency
system.cpu.icache.overall_avg_mshr_miss_latency::total 37420.451800                       # average overall mshr miss latency
system.cpu.icache.overall_hits::.switch_cpus.inst      8755871                       # number of overall hits
system.cpu.icache.overall_hits::total         8755871                       # number of overall hits
system.cpu.icache.overall_miss_latency::.switch_cpus.inst    800616250                       # number of overall miss cycles
system.cpu.icache.overall_miss_latency::total    800616250                       # number of overall miss cycles
system.cpu.icache.overall_miss_rate::.switch_cpus.inst     0.002448                       # miss rate for overall accesses
system.cpu.icache.overall_miss_rate::total     0.002448                       # miss rate for overall accesses
system.cpu.icache.overall_misses::.switch_cpus.inst        21489                       # number of overall misses
system.cpu.icache.overall_misses::total         21489                       # number of overall misses
system.cpu.icache.overall_mshr_hits::.switch_cpus.inst         4933                       # number of overall MSHR hits
system.cpu.icache.overall_mshr_hits::total         4933                       # number of overall MSHR hits
system.cpu.icache.overall_mshr_miss_latency::.switch_cpus.inst    619533000                       # number of overall MSHR miss cycles
system.cpu.icache.overall_mshr_miss_latency::total    619533000                       # number of overall MSHR miss cycles
system.cpu.icache.overall_mshr_miss_rate::.switch_cpus.inst     0.001886                       # mshr miss rate for overall accesses
system.cpu.icache.overall_mshr_miss_rate::total     0.001886                       # mshr miss rate for overall accesses
system.cpu.icache.overall_mshr_misses::.switch_cpus.inst        16556                       # number of overall MSHR misses
system.cpu.icache.overall_mshr_misses::total        16556                       # number of overall MSHR misses
system.cpu.icache.replacements                  16044                       # number of replacements
system.cpu.icache.tags.age_task_id_blocks_1025::2           15                       # Occupied blocks per task id
system.cpu.icache.tags.age_task_id_blocks_1025::3          130                       # Occupied blocks per task id
system.cpu.icache.tags.age_task_id_blocks_1025::4          367                       # Occupied blocks per task id
system.cpu.icache.tags.avg_refs            301.264959                       # Average number of references to valid blocks.
system.cpu.icache.tags.data_accesses         35125996                       # Number of data accesses
system.cpu.icache.tags.occ_blocks::.switch_cpus.inst   501.879394                       # Average occupied blocks per requestor
system.cpu.icache.tags.occ_percent::.switch_cpus.inst     0.980233                       # Average percentage of cache occupancy
system.cpu.icache.tags.occ_percent::total     0.980233                       # Average percentage of cache occupancy
system.cpu.icache.tags.occ_task_id_blocks::1025          512                       # Occupied blocks per task id
system.cpu.icache.tags.occ_task_id_percent::1025            1                       # Percentage of cache occupancy per task id
system.cpu.icache.tags.sampled_refs             16044                       # Sample count of references to valid blocks.
system.cpu.icache.tags.tag_accesses          35125996                       # Number of tag accesses
system.cpu.icache.tags.tagsinuse           501.879394                       # Cycle average of tags in use
system.cpu.icache.tags.total_refs             4833495                       # Total number of references to valid blocks.
system.cpu.icache.tags.warmup_cycle      807268655596000                       # Cycle when the warmup percentage was hit.
system.cpu.icache.tlbTagged.rdAccesses              0                       # TLB accesses on read requests
system.cpu.icache.tlbTagged.rdMisses                0                       # TLB misses on read requests
system.cpu.icache.tlbTagged.wrAccesses              0                       # TLB accesses on write requests
system.cpu.icache.tlbTagged.wrMisses                0                       # TLB misses on write requests
system.cpu.icache.writebacks::.writebacks        16044                       # number of writebacks
system.cpu.icache.writebacks::total             16044                       # number of writebacks
system.cpu.itb.rdAccesses                           0                       # TLB accesses on read requests
system.cpu.itb.rdMisses                             0                       # TLB misses on read requests
system.cpu.itb.wrAccesses                           0                       # TLB accesses on write requests
system.cpu.itb.wrMisses                             0                       # TLB misses on write requests
system.cpu.itb_walker_cache.DataMeta::0             0                       # Distribution of access
system.cpu.itb_walker_cache.DataMeta::1             0                       # Distribution of access
system.cpu.itb_walker_cache.DataMeta::2             0                       # Distribution of access
system.cpu.itb_walker_cache.DataMeta::3             0                       # Distribution of access
system.cpu.itb_walker_cache.ReadReq_accesses::.switch_cpus.itb.walker          386                       # number of ReadReq accesses(hits+misses)
system.cpu.itb_walker_cache.ReadReq_accesses::total          386                       # number of ReadReq accesses(hits+misses)
system.cpu.itb_walker_cache.ReadReq_avg_miss_latency::.switch_cpus.itb.walker 39983.490566                       # average ReadReq miss latency
system.cpu.itb_walker_cache.ReadReq_avg_miss_latency::total 39983.490566                       # average ReadReq miss latency
system.cpu.itb_walker_cache.ReadReq_avg_mshr_miss_latency::.switch_cpus.itb.walker 39483.490566                       # average ReadReq mshr miss latency
system.cpu.itb_walker_cache.ReadReq_avg_mshr_miss_latency::total 39483.490566                       # average ReadReq mshr miss latency
system.cpu.itb_walker_cache.ReadReq_hits::.switch_cpus.itb.walker          280                       # number of ReadReq hits
system.cpu.itb_walker_cache.ReadReq_hits::total          280                       # number of ReadReq hits
system.cpu.itb_walker_cache.ReadReq_miss_latency::.switch_cpus.itb.walker      4238250                       # number of ReadReq miss cycles
system.cpu.itb_walker_cache.ReadReq_miss_latency::total      4238250                       # number of ReadReq miss cycles
system.cpu.itb_walker_cache.ReadReq_miss_rate::.switch_cpus.itb.walker     0.274611                       # miss rate for ReadReq accesses
system.cpu.itb_walker_cache.ReadReq_miss_rate::total     0.274611                       # miss rate for ReadReq accesses
system.cpu.itb_walker_cache.ReadReq_misses::.switch_cpus.itb.walker          106                       # number of ReadReq misses
system.cpu.itb_walker_cache.ReadReq_misses::total          106                       # number of ReadReq misses
system.cpu.itb_walker_cache.ReadReq_mshr_miss_latency::.switch_cpus.itb.walker      4185250                       # number of ReadReq MSHR miss cycles
system.cpu.itb_walker_cache.ReadReq_mshr_miss_latency::total      4185250                       # number of ReadReq MSHR miss cycles
system.cpu.itb_walker_cache.ReadReq_mshr_miss_rate::.switch_cpus.itb.walker     0.274611                       # mshr miss rate for ReadReq accesses
system.cpu.itb_walker_cache.ReadReq_mshr_miss_rate::total     0.274611                       # mshr miss rate for ReadReq accesses
system.cpu.itb_walker_cache.ReadReq_mshr_misses::.switch_cpus.itb.walker          106                       # number of ReadReq MSHR misses
system.cpu.itb_walker_cache.ReadReq_mshr_misses::total          106                       # number of ReadReq MSHR misses
system.cpu.itb_walker_cache.avg_blocked_cycles::no_mshrs          nan                       # average number of cycles each access was blocked
system.cpu.itb_walker_cache.avg_blocked_cycles::no_targets          nan                       # average number of cycles each access was blocked
system.cpu.itb_walker_cache.blocked::no_mshrs            0                       # number of cycles access was blocked
system.cpu.itb_walker_cache.blocked::no_targets            0                       # number of cycles access was blocked
system.cpu.itb_walker_cache.blocked_cycles::no_mshrs            0                       # number of cycles access was blocked
system.cpu.itb_walker_cache.blocked_cycles::no_targets            0                       # number of cycles access was blocked
system.cpu.itb_walker_cache.demand_accesses::.switch_cpus.itb.walker          386                       # number of demand (read+write) accesses
system.cpu.itb_walker_cache.demand_accesses::total          386                       # number of demand (read+write) accesses
system.cpu.itb_walker_cache.demand_avg_miss_latency::.switch_cpus.itb.walker 39983.490566                       # average overall miss latency
system.cpu.itb_walker_cache.demand_avg_miss_latency::total 39983.490566                       # average overall miss latency
system.cpu.itb_walker_cache.demand_avg_mshr_miss_latency::.switch_cpus.itb.walker 39483.490566                       # average overall mshr miss latency
system.cpu.itb_walker_cache.demand_avg_mshr_miss_latency::total 39483.490566                       # average overall mshr miss latency
system.cpu.itb_walker_cache.demand_hits::.switch_cpus.itb.walker          280                       # number of demand (read+write) hits
system.cpu.itb_walker_cache.demand_hits::total          280                       # number of demand (read+write) hits
system.cpu.itb_walker_cache.demand_miss_latency::.switch_cpus.itb.walker      4238250                       # number of demand (read+write) miss cycles
system.cpu.itb_walker_cache.demand_miss_latency::total      4238250                       # number of demand (read+write) miss cycles
system.cpu.itb_walker_cache.demand_miss_rate::.switch_cpus.itb.walker     0.274611                       # miss rate for demand accesses
system.cpu.itb_walker_cache.demand_miss_rate::total     0.274611                       # miss rate for demand accesses
system.cpu.itb_walker_cache.demand_misses::.switch_cpus.itb.walker          106                       # number of demand (read+write) misses
system.cpu.itb_walker_cache.demand_misses::total          106                       # number of demand (read+write) misses
system.cpu.itb_walker_cache.demand_mshr_miss_latency::.switch_cpus.itb.walker      4185250                       # number of demand (read+write) MSHR miss cycles
system.cpu.itb_walker_cache.demand_mshr_miss_latency::total      4185250                       # number of demand (read+write) MSHR miss cycles
system.cpu.itb_walker_cache.demand_mshr_miss_rate::.switch_cpus.itb.walker     0.274611                       # mshr miss rate for demand accesses
system.cpu.itb_walker_cache.demand_mshr_miss_rate::total     0.274611                       # mshr miss rate for demand accesses
system.cpu.itb_walker_cache.demand_mshr_misses::.switch_cpus.itb.walker          106                       # number of demand (read+write) MSHR misses
system.cpu.itb_walker_cache.demand_mshr_misses::total          106                       # number of demand (read+write) MSHR misses
system.cpu.itb_walker_cache.overall_accesses::.switch_cpus.itb.walker          386                       # number of overall (read+write) accesses
system.cpu.itb_walker_cache.overall_accesses::total          386                       # number of overall (read+write) accesses
system.cpu.itb_walker_cache.overall_avg_miss_latency::.switch_cpus.itb.walker 39983.490566                       # average overall miss latency
system.cpu.itb_walker_cache.overall_avg_miss_latency::total 39983.490566                       # average overall miss latency
system.cpu.itb_walker_cache.overall_avg_mshr_miss_latency::.switch_cpus.itb.walker 39483.490566                       # average overall mshr miss latency
system.cpu.itb_walker_cache.overall_avg_mshr_miss_latency::total 39483.490566                       # average overall mshr miss latency
system.cpu.itb_walker_cache.overall_hits::.switch_cpus.itb.walker          280                       # number of overall hits
system.cpu.itb_walker_cache.overall_hits::total          280                       # number of overall hits
system.cpu.itb_walker_cache.overall_miss_latency::.switch_cpus.itb.walker      4238250                       # number of overall miss cycles
system.cpu.itb_walker_cache.overall_miss_latency::total      4238250                       # number of overall miss cycles
system.cpu.itb_walker_cache.overall_miss_rate::.switch_cpus.itb.walker     0.274611                       # miss rate for overall accesses
system.cpu.itb_walker_cache.overall_miss_rate::total     0.274611                       # miss rate for overall accesses
system.cpu.itb_walker_cache.overall_misses::.switch_cpus.itb.walker          106                       # number of overall misses
system.cpu.itb_walker_cache.overall_misses::total          106                       # number of overall misses
system.cpu.itb_walker_cache.overall_mshr_miss_latency::.switch_cpus.itb.walker      4185250                       # number of overall MSHR miss cycles
system.cpu.itb_walker_cache.overall_mshr_miss_latency::total      4185250                       # number of overall MSHR miss cycles
system.cpu.itb_walker_cache.overall_mshr_miss_rate::.switch_cpus.itb.walker     0.274611                       # mshr miss rate for overall accesses
system.cpu.itb_walker_cache.overall_mshr_miss_rate::total     0.274611                       # mshr miss rate for overall accesses
system.cpu.itb_walker_cache.overall_mshr_misses::.switch_cpus.itb.walker          106                       # number of overall MSHR misses
system.cpu.itb_walker_cache.overall_mshr_misses::total          106                       # number of overall MSHR misses
system.cpu.itb_walker_cache.replacements           90                       # number of replacements
system.cpu.itb_walker_cache.tags.age_task_id_blocks_1025::4           16                       # Occupied blocks per task id
system.cpu.itb_walker_cache.tags.avg_refs     3.888889                       # Average number of references to valid blocks.
system.cpu.itb_walker_cache.tags.data_accesses          878                       # Number of data accesses
system.cpu.itb_walker_cache.tags.occ_blocks::.switch_cpus.itb.walker    15.317071                       # Average occupied blocks per requestor
system.cpu.itb_walker_cache.tags.occ_percent::.switch_cpus.itb.walker     0.957317                       # Average percentage of cache occupancy
system.cpu.itb_walker_cache.tags.occ_percent::total     0.957317                       # Average percentage of cache occupancy
system.cpu.itb_walker_cache.tags.occ_task_id_blocks::1025           16                       # Occupied blocks per task id
system.cpu.itb_walker_cache.tags.occ_task_id_percent::1025            1                       # Percentage of cache occupancy per task id
system.cpu.itb_walker_cache.tags.sampled_refs           90                       # Sample count of references to valid blocks.
system.cpu.itb_walker_cache.tags.tag_accesses          878                       # Number of tag accesses
system.cpu.itb_walker_cache.tags.tagsinuse    15.317071                       # Cycle average of tags in use
system.cpu.itb_walker_cache.tags.total_refs          350                       # Total number of references to valid blocks.
system.cpu.itb_walker_cache.tags.warmup_cycle 807268655307000                       # Cycle when the warmup percentage was hit.
system.cpu.itb_walker_cache.tlbTagged.rdAccesses            0                       # TLB accesses on read requests
system.cpu.itb_walker_cache.tlbTagged.rdMisses            0                       # TLB misses on read requests
system.cpu.itb_walker_cache.tlbTagged.wrAccesses            0                       # TLB accesses on write requests
system.cpu.itb_walker_cache.tlbTagged.wrMisses            0                       # TLB misses on write requests
system.cpu.kern.inst.arm                            0                       # number of arm instructions executed
system.cpu.kern.inst.quiesce                        0                       # number of quiesce instructions executed
system.cpu.l2cache.CleanEvict_mshr_miss_rate::.writebacks          inf                       # mshr miss rate for CleanEvict accesses
system.cpu.l2cache.CleanEvict_mshr_miss_rate::total          inf                       # mshr miss rate for CleanEvict accesses
system.cpu.l2cache.CleanEvict_mshr_misses::.writebacks         1058                       # number of CleanEvict MSHR misses
system.cpu.l2cache.CleanEvict_mshr_misses::total         1058                       # number of CleanEvict MSHR misses
system.cpu.l2cache.DataMeta::0                      0                       # Distribution of access
system.cpu.l2cache.DataMeta::1                      0                       # Distribution of access
system.cpu.l2cache.DataMeta::2                      0                       # Distribution of access
system.cpu.l2cache.DataMeta::3                      0                       # Distribution of access
system.cpu.l2cache.ReadCleanReq_accesses::.switch_cpus.inst        16556                       # number of ReadCleanReq accesses(hits+misses)
system.cpu.l2cache.ReadCleanReq_accesses::total        16556                       # number of ReadCleanReq accesses(hits+misses)
system.cpu.l2cache.ReadCleanReq_avg_miss_latency::.switch_cpus.inst 58768.753843                       # average ReadCleanReq miss latency
system.cpu.l2cache.ReadCleanReq_avg_miss_latency::total 58768.753843                       # average ReadCleanReq miss latency
system.cpu.l2cache.ReadCleanReq_avg_mshr_miss_latency::.switch_cpus.inst 58768.753843                       # average ReadCleanReq mshr miss latency
system.cpu.l2cache.ReadCleanReq_avg_mshr_miss_latency::total 58768.753843                       # average ReadCleanReq mshr miss latency
system.cpu.l2cache.ReadCleanReq_hits::.switch_cpus.inst         6798                       # number of ReadCleanReq hits
system.cpu.l2cache.ReadCleanReq_hits::total         6798                       # number of ReadCleanReq hits
system.cpu.l2cache.ReadCleanReq_miss_latency::.switch_cpus.inst    573465500                       # number of ReadCleanReq miss cycles
system.cpu.l2cache.ReadCleanReq_miss_latency::total    573465500                       # number of ReadCleanReq miss cycles
system.cpu.l2cache.ReadCleanReq_miss_rate::.switch_cpus.inst     0.589394                       # miss rate for ReadCleanReq accesses
system.cpu.l2cache.ReadCleanReq_miss_rate::total     0.589394                       # miss rate for ReadCleanReq accesses
system.cpu.l2cache.ReadCleanReq_misses::.switch_cpus.inst         9758                       # number of ReadCleanReq misses
system.cpu.l2cache.ReadCleanReq_misses::total         9758                       # number of ReadCleanReq misses
system.cpu.l2cache.ReadCleanReq_mshr_miss_latency::.switch_cpus.inst    573465500                       # number of ReadCleanReq MSHR miss cycles
system.cpu.l2cache.ReadCleanReq_mshr_miss_latency::total    573465500                       # number of ReadCleanReq MSHR miss cycles
system.cpu.l2cache.ReadCleanReq_mshr_miss_rate::.switch_cpus.inst     0.589394                       # mshr miss rate for ReadCleanReq accesses
system.cpu.l2cache.ReadCleanReq_mshr_miss_rate::total     0.589394                       # mshr miss rate for ReadCleanReq accesses
system.cpu.l2cache.ReadCleanReq_mshr_misses::.switch_cpus.inst         9758                       # number of ReadCleanReq MSHR misses
system.cpu.l2cache.ReadCleanReq_mshr_misses::total         9758                       # number of ReadCleanReq MSHR misses
system.cpu.l2cache.ReadExReq_accesses::.switch_cpus.data      3119207                       # number of ReadExReq accesses(hits+misses)
system.cpu.l2cache.ReadExReq_accesses::total      3119207                       # number of ReadExReq accesses(hits+misses)
system.cpu.l2cache.ReadExReq_avg_miss_latency::.switch_cpus.data 76523.775515                       # average ReadExReq miss latency
system.cpu.l2cache.ReadExReq_avg_miss_latency::total 76523.775515                       # average ReadExReq miss latency
system.cpu.l2cache.ReadExReq_avg_mshr_miss_latency::.switch_cpus.data 76523.775515                       # average ReadExReq mshr miss latency
system.cpu.l2cache.ReadExReq_avg_mshr_miss_latency::total 76523.775515                       # average ReadExReq mshr miss latency
system.cpu.l2cache.ReadExReq_hits::.switch_cpus.data          284                       # number of ReadExReq hits
system.cpu.l2cache.ReadExReq_hits::total          284                       # number of ReadExReq hits
system.cpu.l2cache.ReadExReq_miss_latency::.switch_cpus.data 238671763500                       # number of ReadExReq miss cycles
system.cpu.l2cache.ReadExReq_miss_latency::total 238671763500                       # number of ReadExReq miss cycles
system.cpu.l2cache.ReadExReq_miss_rate::.switch_cpus.data     0.999909                       # miss rate for ReadExReq accesses
system.cpu.l2cache.ReadExReq_miss_rate::total     0.999909                       # miss rate for ReadExReq accesses
system.cpu.l2cache.ReadExReq_misses::.switch_cpus.data      3118923                       # number of ReadExReq misses
system.cpu.l2cache.ReadExReq_misses::total      3118923                       # number of ReadExReq misses
system.cpu.l2cache.ReadExReq_mshr_miss_latency::.switch_cpus.data 238671763500                       # number of ReadExReq MSHR miss cycles
system.cpu.l2cache.ReadExReq_mshr_miss_latency::total 238671763500                       # number of ReadExReq MSHR miss cycles
system.cpu.l2cache.ReadExReq_mshr_miss_rate::.switch_cpus.data     0.999909                       # mshr miss rate for ReadExReq accesses
system.cpu.l2cache.ReadExReq_mshr_miss_rate::total     0.999909                       # mshr miss rate for ReadExReq accesses
system.cpu.l2cache.ReadExReq_mshr_misses::.switch_cpus.data      3118923                       # number of ReadExReq MSHR misses
system.cpu.l2cache.ReadExReq_mshr_misses::total      3118923                       # number of ReadExReq MSHR misses
system.cpu.l2cache.ReadSharedReq_accesses::.switch_cpus.dtb.walker         6828                       # number of ReadSharedReq accesses(hits+misses)
system.cpu.l2cache.ReadSharedReq_accesses::.switch_cpus.itb.walker          106                       # number of ReadSharedReq accesses(hits+misses)
system.cpu.l2cache.ReadSharedReq_accesses::.switch_cpus.data       931806                       # number of ReadSharedReq accesses(hits+misses)
system.cpu.l2cache.ReadSharedReq_accesses::total       938740                       # number of ReadSharedReq accesses(hits+misses)
system.cpu.l2cache.ReadSharedReq_avg_miss_latency::.switch_cpus.dtb.walker 35441.814294                       # average ReadSharedReq miss latency
system.cpu.l2cache.ReadSharedReq_avg_miss_latency::.switch_cpus.itb.walker 68710.526316                       # average ReadSharedReq miss latency
system.cpu.l2cache.ReadSharedReq_avg_miss_latency::.switch_cpus.data 77302.832177                       # average ReadSharedReq miss latency
system.cpu.l2cache.ReadSharedReq_avg_miss_latency::total 77228.655614                       # average ReadSharedReq miss latency
system.cpu.l2cache.ReadSharedReq_avg_mshr_miss_latency::.switch_cpus.dtb.walker 35441.814294                       # average ReadSharedReq mshr miss latency
system.cpu.l2cache.ReadSharedReq_avg_mshr_miss_latency::.switch_cpus.itb.walker 68710.526316                       # average ReadSharedReq mshr miss latency
system.cpu.l2cache.ReadSharedReq_avg_mshr_miss_latency::.switch_cpus.data 77302.832177                       # average ReadSharedReq mshr miss latency
system.cpu.l2cache.ReadSharedReq_avg_mshr_miss_latency::total 77228.655614                       # average ReadSharedReq mshr miss latency
system.cpu.l2cache.ReadSharedReq_hits::.switch_cpus.dtb.walker         5191                       # number of ReadSharedReq hits
system.cpu.l2cache.ReadSharedReq_hits::.switch_cpus.itb.walker           49                       # number of ReadSharedReq hits
system.cpu.l2cache.ReadSharedReq_hits::.switch_cpus.data         3068                       # number of ReadSharedReq hits
system.cpu.l2cache.ReadSharedReq_hits::total         8308                       # number of ReadSharedReq hits
system.cpu.l2cache.ReadSharedReq_miss_latency::.switch_cpus.dtb.walker     58018250                       # number of ReadSharedReq miss cycles
system.cpu.l2cache.ReadSharedReq_miss_latency::.switch_cpus.itb.walker      3916500                       # number of ReadSharedReq miss cycles
system.cpu.l2cache.ReadSharedReq_miss_latency::.switch_cpus.data  71794077750                       # number of ReadSharedReq miss cycles
system.cpu.l2cache.ReadSharedReq_miss_latency::total  71856012500                       # number of ReadSharedReq miss cycles
system.cpu.l2cache.ReadSharedReq_miss_rate::.switch_cpus.dtb.walker     0.239748                       # miss rate for ReadSharedReq accesses
system.cpu.l2cache.ReadSharedReq_miss_rate::.switch_cpus.itb.walker     0.537736                       # miss rate for ReadSharedReq accesses
system.cpu.l2cache.ReadSharedReq_miss_rate::.switch_cpus.data     0.996707                       # miss rate for ReadSharedReq accesses
system.cpu.l2cache.ReadSharedReq_miss_rate::total     0.991150                       # miss rate for ReadSharedReq accesses
system.cpu.l2cache.ReadSharedReq_misses::.switch_cpus.dtb.walker         1637                       # number of ReadSharedReq misses
system.cpu.l2cache.ReadSharedReq_misses::.switch_cpus.itb.walker           57                       # number of ReadSharedReq misses
system.cpu.l2cache.ReadSharedReq_misses::.switch_cpus.data       928738                       # number of ReadSharedReq misses
system.cpu.l2cache.ReadSharedReq_misses::total       930432                       # number of ReadSharedReq misses
system.cpu.l2cache.ReadSharedReq_mshr_miss_latency::.switch_cpus.dtb.walker     58018250                       # number of ReadSharedReq MSHR miss cycles
system.cpu.l2cache.ReadSharedReq_mshr_miss_latency::.switch_cpus.itb.walker      3916500                       # number of ReadSharedReq MSHR miss cycles
system.cpu.l2cache.ReadSharedReq_mshr_miss_latency::.switch_cpus.data  71794077750                       # number of ReadSharedReq MSHR miss cycles
system.cpu.l2cache.ReadSharedReq_mshr_miss_latency::total  71856012500                       # number of ReadSharedReq MSHR miss cycles
system.cpu.l2cache.ReadSharedReq_mshr_miss_rate::.switch_cpus.dtb.walker     0.239748                       # mshr miss rate for ReadSharedReq accesses
system.cpu.l2cache.ReadSharedReq_mshr_miss_rate::.switch_cpus.itb.walker     0.537736                       # mshr miss rate for ReadSharedReq accesses
system.cpu.l2cache.ReadSharedReq_mshr_miss_rate::.switch_cpus.data     0.996707                       # mshr miss rate for ReadSharedReq accesses
system.cpu.l2cache.ReadSharedReq_mshr_miss_rate::total     0.991150                       # mshr miss rate for ReadSharedReq accesses
system.cpu.l2cache.ReadSharedReq_mshr_misses::.switch_cpus.dtb.walker         1637                       # number of ReadSharedReq MSHR misses
system.cpu.l2cache.ReadSharedReq_mshr_misses::.switch_cpus.itb.walker           57                       # number of ReadSharedReq MSHR misses
system.cpu.l2cache.ReadSharedReq_mshr_misses::.switch_cpus.data       928738                       # number of ReadSharedReq MSHR misses
system.cpu.l2cache.ReadSharedReq_mshr_misses::total       930432                       # number of ReadSharedReq MSHR misses
system.cpu.l2cache.UpgradeReq_accesses::.switch_cpus.data        13090                       # number of UpgradeReq accesses(hits+misses)
system.cpu.l2cache.UpgradeReq_accesses::total        13090                       # number of UpgradeReq accesses(hits+misses)
system.cpu.l2cache.UpgradeReq_avg_miss_latency::.switch_cpus.data 12662.698413                       # average UpgradeReq miss latency
system.cpu.l2cache.UpgradeReq_avg_miss_latency::total 12662.698413                       # average UpgradeReq miss latency
system.cpu.l2cache.UpgradeReq_avg_mshr_miss_latency::.switch_cpus.data 14821.428571                       # average UpgradeReq mshr miss latency
system.cpu.l2cache.UpgradeReq_avg_mshr_miss_latency::total 14821.428571                       # average UpgradeReq mshr miss latency
system.cpu.l2cache.UpgradeReq_hits::.switch_cpus.data        13027                       # number of UpgradeReq hits
system.cpu.l2cache.UpgradeReq_hits::total        13027                       # number of UpgradeReq hits
system.cpu.l2cache.UpgradeReq_miss_latency::.switch_cpus.data       797750                       # number of UpgradeReq miss cycles
system.cpu.l2cache.UpgradeReq_miss_latency::total       797750                       # number of UpgradeReq miss cycles
system.cpu.l2cache.UpgradeReq_miss_rate::.switch_cpus.data     0.004813                       # miss rate for UpgradeReq accesses
system.cpu.l2cache.UpgradeReq_miss_rate::total     0.004813                       # miss rate for UpgradeReq accesses
system.cpu.l2cache.UpgradeReq_misses::.switch_cpus.data           63                       # number of UpgradeReq misses
system.cpu.l2cache.UpgradeReq_misses::total           63                       # number of UpgradeReq misses
system.cpu.l2cache.UpgradeReq_mshr_miss_latency::.switch_cpus.data       933750                       # number of UpgradeReq MSHR miss cycles
system.cpu.l2cache.UpgradeReq_mshr_miss_latency::total       933750                       # number of UpgradeReq MSHR miss cycles
system.cpu.l2cache.UpgradeReq_mshr_miss_rate::.switch_cpus.data     0.004813                       # mshr miss rate for UpgradeReq accesses
system.cpu.l2cache.UpgradeReq_mshr_miss_rate::total     0.004813                       # mshr miss rate for UpgradeReq accesses
system.cpu.l2cache.UpgradeReq_mshr_misses::.switch_cpus.data           63                       # number of UpgradeReq MSHR misses
system.cpu.l2cache.UpgradeReq_mshr_misses::total           63                       # number of UpgradeReq MSHR misses
system.cpu.l2cache.WriteReq_mshr_uncacheable::.switch_cpus.data          286                       # number of WriteReq MSHR uncacheable
system.cpu.l2cache.WriteReq_mshr_uncacheable::total          286                       # number of WriteReq MSHR uncacheable
system.cpu.l2cache.WritebackClean_accesses::.writebacks        16044                       # number of WritebackClean accesses(hits+misses)
system.cpu.l2cache.WritebackClean_accesses::total        16044                       # number of WritebackClean accesses(hits+misses)
system.cpu.l2cache.WritebackClean_hits::.writebacks        16044                       # number of WritebackClean hits
system.cpu.l2cache.WritebackClean_hits::total        16044                       # number of WritebackClean hits
system.cpu.l2cache.WritebackDirty_accesses::.writebacks      3214718                       # number of WritebackDirty accesses(hits+misses)
system.cpu.l2cache.WritebackDirty_accesses::total      3214718                       # number of WritebackDirty accesses(hits+misses)
system.cpu.l2cache.WritebackDirty_hits::.writebacks      3214718                       # number of WritebackDirty hits
system.cpu.l2cache.WritebackDirty_hits::total      3214718                       # number of WritebackDirty hits
system.cpu.l2cache.avg_blocked_cycles::no_mshrs          nan                       # average number of cycles each access was blocked
system.cpu.l2cache.avg_blocked_cycles::no_targets          nan                       # average number of cycles each access was blocked
system.cpu.l2cache.blocked::no_mshrs                0                       # number of cycles access was blocked
system.cpu.l2cache.blocked::no_targets              0                       # number of cycles access was blocked
system.cpu.l2cache.blocked_cycles::no_mshrs            0                       # number of cycles access was blocked
system.cpu.l2cache.blocked_cycles::no_targets            0                       # number of cycles access was blocked
system.cpu.l2cache.demand_accesses::.switch_cpus.dtb.walker         6828                       # number of demand (read+write) accesses
system.cpu.l2cache.demand_accesses::.switch_cpus.itb.walker          106                       # number of demand (read+write) accesses
system.cpu.l2cache.demand_accesses::.switch_cpus.inst        16556                       # number of demand (read+write) accesses
system.cpu.l2cache.demand_accesses::.switch_cpus.data      4051013                       # number of demand (read+write) accesses
system.cpu.l2cache.demand_accesses::total      4074503                       # number of demand (read+write) accesses
system.cpu.l2cache.demand_avg_miss_latency::.switch_cpus.dtb.walker 35441.814294                       # average overall miss latency
system.cpu.l2cache.demand_avg_miss_latency::.switch_cpus.itb.walker 68710.526316                       # average overall miss latency
system.cpu.l2cache.demand_avg_miss_latency::.switch_cpus.inst 58768.753843                       # average overall miss latency
system.cpu.l2cache.demand_avg_miss_latency::.switch_cpus.data 76702.530486                       # average overall miss latency
system.cpu.l2cache.demand_avg_miss_latency::total 76642.665898                       # average overall miss latency
system.cpu.l2cache.demand_avg_mshr_miss_latency::.switch_cpus.dtb.walker 35441.814294                       # average overall mshr miss latency
system.cpu.l2cache.demand_avg_mshr_miss_latency::.switch_cpus.itb.walker 68710.526316                       # average overall mshr miss latency
system.cpu.l2cache.demand_avg_mshr_miss_latency::.switch_cpus.inst 58768.753843                       # average overall mshr miss latency
system.cpu.l2cache.demand_avg_mshr_miss_latency::.switch_cpus.data 76702.530486                       # average overall mshr miss latency
system.cpu.l2cache.demand_avg_mshr_miss_latency::total 76642.665898                       # average overall mshr miss latency
system.cpu.l2cache.demand_hits::.switch_cpus.dtb.walker         5191                       # number of demand (read+write) hits
system.cpu.l2cache.demand_hits::.switch_cpus.itb.walker           49                       # number of demand (read+write) hits
system.cpu.l2cache.demand_hits::.switch_cpus.inst         6798                       # number of demand (read+write) hits
system.cpu.l2cache.demand_hits::.switch_cpus.data         3352                       # number of demand (read+write) hits
system.cpu.l2cache.demand_hits::total           15390                       # number of demand (read+write) hits
system.cpu.l2cache.demand_miss_latency::.switch_cpus.dtb.walker     58018250                       # number of demand (read+write) miss cycles
system.cpu.l2cache.demand_miss_latency::.switch_cpus.itb.walker      3916500                       # number of demand (read+write) miss cycles
system.cpu.l2cache.demand_miss_latency::.switch_cpus.inst    573465500                       # number of demand (read+write) miss cycles
system.cpu.l2cache.demand_miss_latency::.switch_cpus.data 310465841250                       # number of demand (read+write) miss cycles
system.cpu.l2cache.demand_miss_latency::total 311101241500                       # number of demand (read+write) miss cycles
system.cpu.l2cache.demand_miss_rate::.switch_cpus.dtb.walker     0.239748                       # miss rate for demand accesses
system.cpu.l2cache.demand_miss_rate::.switch_cpus.itb.walker     0.537736                       # miss rate for demand accesses
system.cpu.l2cache.demand_miss_rate::.switch_cpus.inst     0.589394                       # miss rate for demand accesses
system.cpu.l2cache.demand_miss_rate::.switch_cpus.data     0.999173                       # miss rate for demand accesses
system.cpu.l2cache.demand_miss_rate::total     0.996223                       # miss rate for demand accesses
system.cpu.l2cache.demand_misses::.switch_cpus.dtb.walker         1637                       # number of demand (read+write) misses
system.cpu.l2cache.demand_misses::.switch_cpus.itb.walker           57                       # number of demand (read+write) misses
system.cpu.l2cache.demand_misses::.switch_cpus.inst         9758                       # number of demand (read+write) misses
system.cpu.l2cache.demand_misses::.switch_cpus.data      4047661                       # number of demand (read+write) misses
system.cpu.l2cache.demand_misses::total       4059113                       # number of demand (read+write) misses
system.cpu.l2cache.demand_mshr_miss_latency::.switch_cpus.dtb.walker     58018250                       # number of demand (read+write) MSHR miss cycles
system.cpu.l2cache.demand_mshr_miss_latency::.switch_cpus.itb.walker      3916500                       # number of demand (read+write) MSHR miss cycles
system.cpu.l2cache.demand_mshr_miss_latency::.switch_cpus.inst    573465500                       # number of demand (read+write) MSHR miss cycles
system.cpu.l2cache.demand_mshr_miss_latency::.switch_cpus.data 310465841250                       # number of demand (read+write) MSHR miss cycles
system.cpu.l2cache.demand_mshr_miss_latency::total 311101241500                       # number of demand (read+write) MSHR miss cycles
system.cpu.l2cache.demand_mshr_miss_rate::.switch_cpus.dtb.walker     0.239748                       # mshr miss rate for demand accesses
system.cpu.l2cache.demand_mshr_miss_rate::.switch_cpus.itb.walker     0.537736                       # mshr miss rate for demand accesses
system.cpu.l2cache.demand_mshr_miss_rate::.switch_cpus.inst     0.589394                       # mshr miss rate for demand accesses
system.cpu.l2cache.demand_mshr_miss_rate::.switch_cpus.data     0.999173                       # mshr miss rate for demand accesses
system.cpu.l2cache.demand_mshr_miss_rate::total     0.996223                       # mshr miss rate for demand accesses
system.cpu.l2cache.demand_mshr_misses::.switch_cpus.dtb.walker         1637                       # number of demand (read+write) MSHR misses
system.cpu.l2cache.demand_mshr_misses::.switch_cpus.itb.walker           57                       # number of demand (read+write) MSHR misses
system.cpu.l2cache.demand_mshr_misses::.switch_cpus.inst         9758                       # number of demand (read+write) MSHR misses
system.cpu.l2cache.demand_mshr_misses::.switch_cpus.data      4047661                       # number of demand (read+write) MSHR misses
system.cpu.l2cache.demand_mshr_misses::total      4059113                       # number of demand (read+write) MSHR misses
system.cpu.l2cache.overall_accesses::.switch_cpus.dtb.walker         6828                       # number of overall (read+write) accesses
system.cpu.l2cache.overall_accesses::.switch_cpus.itb.walker          106                       # number of overall (read+write) accesses
system.cpu.l2cache.overall_accesses::.switch_cpus.inst        16556                       # number of overall (read+write) accesses
system.cpu.l2cache.overall_accesses::.switch_cpus.data      4051013                       # number of overall (read+write) accesses
system.cpu.l2cache.overall_accesses::total      4074503                       # number of overall (read+write) accesses
system.cpu.l2cache.overall_avg_miss_latency::.switch_cpus.dtb.walker 35441.814294                       # average overall miss latency
system.cpu.l2cache.overall_avg_miss_latency::.switch_cpus.itb.walker 68710.526316                       # average overall miss latency
system.cpu.l2cache.overall_avg_miss_latency::.switch_cpus.inst 58768.753843                       # average overall miss latency
system.cpu.l2cache.overall_avg_miss_latency::.switch_cpus.data 76702.530486                       # average overall miss latency
system.cpu.l2cache.overall_avg_miss_latency::total 76642.665898                       # average overall miss latency
system.cpu.l2cache.overall_avg_mshr_miss_latency::.switch_cpus.dtb.walker 35441.814294                       # average overall mshr miss latency
system.cpu.l2cache.overall_avg_mshr_miss_latency::.switch_cpus.itb.walker 68710.526316                       # average overall mshr miss latency
system.cpu.l2cache.overall_avg_mshr_miss_latency::.switch_cpus.inst 58768.753843                       # average overall mshr miss latency
system.cpu.l2cache.overall_avg_mshr_miss_latency::.switch_cpus.data 76702.530486                       # average overall mshr miss latency
system.cpu.l2cache.overall_avg_mshr_miss_latency::total 76642.665898                       # average overall mshr miss latency
system.cpu.l2cache.overall_hits::.switch_cpus.dtb.walker         5191                       # number of overall hits
system.cpu.l2cache.overall_hits::.switch_cpus.itb.walker           49                       # number of overall hits
system.cpu.l2cache.overall_hits::.switch_cpus.inst         6798                       # number of overall hits
system.cpu.l2cache.overall_hits::.switch_cpus.data         3352                       # number of overall hits
system.cpu.l2cache.overall_hits::total          15390                       # number of overall hits
system.cpu.l2cache.overall_miss_latency::.switch_cpus.dtb.walker     58018250                       # number of overall miss cycles
[...]
system.switch_cpus.iq.issued_per_cycle::samples   1141303658                       # Number of insts issued each cycle
system.switch_cpus.iq.issued_per_cycle::mean     0.147033                       # Number of insts issued each cycle
system.switch_cpus.iq.issued_per_cycle::stdev     0.675401                       # Number of insts issued each cycle
system.switch_cpus.iq.issued_per_cycle::underflows            0      0.00%      0.00% # Number of insts issued each cycle
system.switch_cpus.iq.issued_per_cycle::0   1069418746     93.70%     93.70% # Number of insts issued each cycle
system.switch_cpus.iq.issued_per_cycle::1     28788918      2.52%     96.22% # Number of insts issued each cycle
system.switch_cpus.iq.issued_per_cycle::2     17634008      1.55%     97.77% # Number of insts issued each cycle
system.switch_cpus.iq.issued_per_cycle::3      8255595      0.72%     98.49% # Number of insts issued each cycle
system.switch_cpus.iq.issued_per_cycle::4      9353045      0.82%     99.31% # Number of insts issued each cycle
system.switch_cpus.iq.issued_per_cycle::5      5675237      0.50%     99.81% # Number of insts issued each cycle
system.switch_cpus.iq.issued_per_cycle::6      2078662      0.18%     99.99% # Number of insts issued each cycle
system.switch_cpus.iq.issued_per_cycle::7        70246      0.01%    100.00% # Number of insts issued each cycle
system.switch_cpus.iq.issued_per_cycle::8        29201      0.00%    100.00% # Number of insts issued each cycle
system.switch_cpus.iq.issued_per_cycle::overflows            0      0.00%    100.00% # Number of insts issued each cycle
system.switch_cpus.iq.issued_per_cycle::min_value            0                       # Number of insts issued each cycle
system.switch_cpus.iq.issued_per_cycle::max_value            8                       # Number of insts issued each cycle
system.switch_cpus.iq.issued_per_cycle::total   1141303658                       # Number of insts issued each cycle
system.switch_cpus.iq.rate                   0.146917                       # Inst issue rate
system.switch_cpus.iq.vec_alu_accesses              0                       # Number of vector alu accesses
system.switch_cpus.iq.vec_inst_queue_reads            0                       # Number of vector instruction queue reads
system.switch_cpus.iq.vec_inst_queue_wakeup_accesses            0                       # Number of vector instruction queue wakeup accesses
system.switch_cpus.iq.vec_inst_queue_writes            0                       # Number of vector instruction queue writes
system.switch_cpus.itb.rdAccesses                   0                       # TLB accesses on read requests
system.switch_cpus.itb.rdMisses                     0                       # TLB misses on read requests
system.switch_cpus.itb.wrAccesses             8778594                       # TLB accesses on write requests
system.switch_cpus.itb.wrMisses                   154                       # TLB misses on write requests
system.switch_cpus.kern.inst.arm                    0                       # number of arm instructions executed
system.switch_cpus.kern.inst.quiesce                0                       # number of quiesce instructions executed
system.switch_cpus.memDep0.conflictingLoads       151212                       # Number of conflicting loads.
system.switch_cpus.memDep0.conflictingStores        52060                       # Number of conflicting stores.
system.switch_cpus.memDep0.insertedLoads     20064182                       # Number of loads inserted to the mem dependence unit.
system.switch_cpus.memDep0.insertedStores     38117324                       # Number of stores inserted to the mem dependence unit.
system.switch_cpus.misc_regfile_reads        95559919                       # number of misc regfile reads
system.switch_cpus.misc_regfile_writes          12745                       # number of misc regfile writes
system.switch_cpus.numCycles               1142206843                       # number of cpu cycles simulated
system.switch_cpus.numWorkItemsCompleted            0                       # number of work items this cpu completed
system.switch_cpus.numWorkItemsStarted              0                       # number of work items this cpu started
system.switch_cpus.rename.BlockCycles       584010056                       # Number of cycles rename is blocking
system.switch_cpus.rename.CommittedMaps     162668166                       # Number of HB maps that are committed
system.switch_cpus.rename.IQFullEvents        1008355                       # Number of times rename has blocked due to IQ full
system.switch_cpus.rename.IdleCycles         14793362                       # Number of cycles rename is idle
system.switch_cpus.rename.ROBFullEvents         16497                       # Number of times rename has blocked due to ROB full
system.switch_cpus.rename.RenameLookups     445910536                       # Number of register rename lookups that rename has made
system.switch_cpus.rename.RenamedInsts      168928871                       # Number of instructions processed by rename
system.switch_cpus.rename.RenamedOperands    165230365                       # Number of destination operands rename has renamed
system.switch_cpus.rename.RunCycles          14171344                       # Number of cycles rename is running
system.switch_cpus.rename.SQFullEvents      521696171                       # Number of times rename has blocked due to SQ full
system.switch_cpus.rename.SquashCycles          84281                       # Number of cycles rename is squashing
system.switch_cpus.rename.UnblockCycles     526668810                       # Number of cycles rename is unblocking
system.switch_cpus.rename.UndoneMaps          2562183                       # Number of HB maps that are undone due to squashing
system.switch_cpus.rename.fp_rename_lookups          300                       # Number of floating rename lookups
system.switch_cpus.rename.int_rename_lookups    252140545                       # Number of integer rename lookups
system.switch_cpus.rename.serializeStallCycles      1575801                       # count of cycles rename stalled for serializing inst
system.switch_cpus.rename.serializingInsts        17272                       # count of serializing insts renamed
system.switch_cpus.rename.skidInsts         120688503                       # count of insts added to the skid buffer
system.switch_cpus.rename.tempSerializingInsts        17463                       # count of temporary serializing insts renamed
system.switch_cpus.rob.rob_reads           1308340901                       # The number of ROB reads
system.switch_cpus.rob.rob_writes           337340148                       # The number of ROB writes
system.switch_cpus.timesIdled                    7953                       # Number of times that the entire CPU went into an idle state and unscheduled itself
system.tol3bus.pkt_count_system.cpu.l2cache.mem_side::system.l3.cpu_side     12173069                       # Packet count per connected master and slave (bytes)
system.tol3bus.pkt_size_system.cpu.l2cache.mem_side::system.l3.cpu_side    466417528                       # Cumulative packet size per connected master and slave (bytes)
system.tol3bus.reqLayer0.occupancy         3644409266                       # Layer occupancy (ticks)
system.tol3bus.reqLayer0.utilization              1.3                       # Layer utilization (%)
system.tol3bus.respLayer0.occupancy        4039752688                       # Layer occupancy (ticks)
system.tol3bus.respLayer0.utilization             1.4                       # Layer utilization (%)
system.tol3bus.snoopTraffic                 202134976                       # Total snoop traffic (bytes)
system.tol3bus.snoop_fanout::samples          8023963                       # Request fanout histogram
system.tol3bus.snoop_fanout::mean            0.000723                       # Request fanout histogram
system.tol3bus.snoop_fanout::stdev           0.026871                       # Request fanout histogram
system.tol3bus.snoop_fanout::underflows             0      0.00%      0.00% # Request fanout histogram
system.tol3bus.snoop_fanout::0                8018165     99.93%     99.93% # Request fanout histogram
system.tol3bus.snoop_fanout::1                   5798      0.07%    100.00% # Request fanout histogram
system.tol3bus.snoop_fanout::overflows              0      0.00%    100.00% # Request fanout histogram
system.tol3bus.snoop_fanout::min_value              0                       # Request fanout histogram
system.tol3bus.snoop_fanout::max_value              1                       # Request fanout histogram
system.tol3bus.snoop_fanout::total            8023963                       # Request fanout histogram
system.tol3bus.snoop_filter.hit_multi_requests            0                       # Number of requests hitting in the snoop filter with multiple (>1) holders of the requested data.
system.tol3bus.snoop_filter.hit_multi_snoops            0                       # Number of snoops hitting in the snoop filter with multiple (>1) holders of the requested data.
system.tol3bus.snoop_filter.hit_single_requests      4054610                       # Number of requests hitting in the snoop filter with a single holder of the requested data.
system.tol3bus.snoop_filter.hit_single_snoops         5798                       # Number of snoops hitting in the snoop filter with a single holder of the requested data.
system.tol3bus.snoop_filter.tot_requests      8113321                       # Total number of requests made to the snoop filter.
system.tol3bus.snoop_filter.tot_snoops           5798                       # Total number of snoops made to the snoop filter.
system.tol3bus.snoops                         3964501                       # Total snoops (count)
system.tol3bus.trans_dist::ReadResp            940190                       # Transaction distribution
system.tol3bus.trans_dist::WriteReq               286                       # Transaction distribution
system.tol3bus.trans_dist::WriteResp              286                       # Transaction distribution
system.tol3bus.trans_dist::WritebackDirty      6387002                       # Transaction distribution
system.tol3bus.trans_dist::CleanEvict         1631644                       # Transaction distribution
system.tol3bus.trans_dist::UpgradeReq              63                       # Transaction distribution
system.tol3bus.trans_dist::UpgradeResp             63                       # Transaction distribution
system.tol3bus.trans_dist::ReadExReq          3118923                       # Transaction distribution
system.tol3bus.trans_dist::ReadExResp         3118923                       # Transaction distribution
system.tol3bus.trans_dist::ReadSharedReq       940190                       # Transaction distribution
system.bridge.pwrStateResidencyTicks::UNDEFINED 807554206940000                       # Cumulative time (in ticks) in various power states
system.voltage_domain.voltage                       1                       # Voltage in Volts
system.membus.pwrStateResidencyTicks::UNDEFINED 807554206940000                       # Cumulative time (in ticks) in various power states
system.membus.badaddr_responder.pwrStateResidencyTicks::UNDEFINED 807554206940000                       # Cumulative time (in ticks) in various power states
system.apicbridge.pwrStateResidencyTicks::UNDEFINED 807554206940000                       # Cumulative time (in ticks) in various power states
system.tol3bus.pwrStateResidencyTicks::UNDEFINED 807554206940000                       # Cumulative time (in ticks) in various power states
system.switch_cpus.pwrStateResidencyTicks::OFF 285551720750                       # Cumulative time (in ticks) in various power states
system.switch_cpus.dtb.walker.pwrStateResidencyTicks::UNDEFINED 807554206940000                       # Cumulative time (in ticks) in various power states
system.switch_cpus.itb.walker.pwrStateResidencyTicks::UNDEFINED 807554206940000                       # Cumulative time (in ticks) in various power states
system.clk_domain.clock                          1000                       # Clock period in ticks
system.pc.fake_com_4.pwrStateResidencyTicks::UNDEFINED 807554206940000                       # Cumulative time (in ticks) in various power states
system.pc.fake_com_2.pwrStateResidencyTicks::UNDEFINED 807554206940000                       # Cumulative time (in ticks) in various power states
system.pc.fake_com_3.pwrStateResidencyTicks::UNDEFINED 807554206940000                       # Cumulative time (in ticks) in various power states
system.pc.south_bridge.io_apic.pwrStateResidencyTicks::UNDEFINED 807554206940000                       # Cumulative time (in ticks) in various power states
system.pc.south_bridge.pic1.pwrStateResidencyTicks::UNDEFINED 807554206940000                       # Cumulative time (in ticks) in various power states
system.pc.south_bridge.pic2.pwrStateResidencyTicks::UNDEFINED 807554206940000                       # Cumulative time (in ticks) in various power states
system.pc.south_bridge.dma1.pwrStateResidencyTicks::UNDEFINED 807554206940000                       # Cumulative time (in ticks) in various power states
system.pc.south_bridge.speaker.pwrStateResidencyTicks::UNDEFINED 807554206940000                       # Cumulative time (in ticks) in various power states
system.pc.south_bridge.keyboard.pwrStateResidencyTicks::UNDEFINED 807554206940000                       # Cumulative time (in ticks) in various power states
system.pc.south_bridge.ide.pwrStateResidencyTicks::UNDEFINED 807554206940000                       # Cumulative time (in ticks) in various power states
system.pc.south_bridge.pit.pwrStateResidencyTicks::UNDEFINED 807554206940000                       # Cumulative time (in ticks) in various power states
system.pc.south_bridge.cmos.pwrStateResidencyTicks::UNDEFINED 807554206940000                       # Cumulative time (in ticks) in various power states
system.pc.i_dont_exist2.pwrStateResidencyTicks::UNDEFINED 807554206940000                       # Cumulative time (in ticks) in various power states
system.pc.i_dont_exist1.pwrStateResidencyTicks::UNDEFINED 807554206940000                       # Cumulative time (in ticks) in various power states
system.pc.com_1.pwrStateResidencyTicks::UNDEFINED 807554206940000                       # Cumulative time (in ticks) in various power states
system.pc.fake_floppy.pwrStateResidencyTicks::UNDEFINED 807554206940000                       # Cumulative time (in ticks) in various power states
system.pc.behind_pci.pwrStateResidencyTicks::UNDEFINED 807554206940000                       # Cumulative time (in ticks) in various power states
system.pc.pci_host.pwrStateResidencyTicks::UNDEFINED 807554206940000                       # Cumulative time (in ticks) in various power states
system.cpu_clk_domain.clock                       250                       # Clock period in ticks
system.iocache.pwrStateResidencyTicks::UNDEFINED 807554206940000                       # Cumulative time (in ticks) in various power states
system.iocache.tlbTagged.walker.pwrStateResidencyTicks::UNDEFINED 807554206940000                       # Cumulative time (in ticks) in various power states
system.iocache.tags.pwrStateResidencyTicks::UNDEFINED 807554206940000                       # Cumulative time (in ticks) in various power states
system.mem_ctrls0.pwrStateResidencyTicks::UNDEFINED 807554206940000                       # Cumulative time (in ticks) in various power states
system.mem_ctrls1.pwrStateResidencyTicks::UNDEFINED 807554206940000                       # Cumulative time (in ticks) in various power states
system.l3.pwrStateResidencyTicks::UNDEFINED 807554206940000                       # Cumulative time (in ticks) in various power states
system.l3.tlbTagged.walker.pwrStateResidencyTicks::UNDEFINED 807554206940000                       # Cumulative time (in ticks) in various power states
system.l3.tags.pwrStateResidencyTicks::UNDEFINED 807554206940000                       # Cumulative time (in ticks) in various power states
system.cpu_voltage_domain.voltage                   1                       # Voltage in Volts
system.iobus.pwrStateResidencyTicks::UNDEFINED 807554206940000                       # Cumulative time (in ticks) in various power states
system.cpu.numPwrStateTransitions                   1                       # Number of power state transitions
system.cpu.pwrStateResidencyTicks::ON           10000                       # Cumulative time (in ticks) in various power states
system.cpu.pwrStateResidencyTicks::OFF   285551710750                       # Cumulative time (in ticks) in various power states
system.cpu.icache.pwrStateResidencyTicks::UNDEFINED 807554206940000                       # Cumulative time (in ticks) in various power states
system.cpu.icache.tlbTagged.walker.pwrStateResidencyTicks::UNDEFINED 807554206940000                       # Cumulative time (in ticks) in various power states
system.cpu.icache.tags.pwrStateResidencyTicks::UNDEFINED 807554206940000                       # Cumulative time (in ticks) in various power states
system.cpu.dtb.walker.pwrStateResidencyTicks::UNDEFINED 807554206940000                       # Cumulative time (in ticks) in various power states
system.cpu.interrupts.pwrStateResidencyTicks::UNDEFINED 807554206940000                       # Cumulative time (in ticks) in various power states
system.cpu.interrupts.clk_domain.clock           4000                       # Clock period in ticks
system.cpu.itb_walker_cache.pwrStateResidencyTicks::UNDEFINED 807554206940000                       # Cumulative time (in ticks) in various power states
system.cpu.itb_walker_cache.tlbTagged.walker.pwrStateResidencyTicks::UNDEFINED 807554206940000                       # Cumulative time (in ticks) in various power states
system.cpu.itb_walker_cache.tags.pwrStateResidencyTicks::UNDEFINED 807554206940000                       # Cumulative time (in ticks) in various power states
system.cpu.itb.walker.pwrStateResidencyTicks::UNDEFINED 807554206940000                       # Cumulative time (in ticks) in various power states
system.cpu.dtb_walker_cache.pwrStateResidencyTicks::UNDEFINED 807554206940000                       # Cumulative time (in ticks) in various power states
system.cpu.dtb_walker_cache.tlbTagged.walker.pwrStateResidencyTicks::UNDEFINED 807554206940000                       # Cumulative time (in ticks) in various power states
system.cpu.dtb_walker_cache.tags.pwrStateResidencyTicks::UNDEFINED 807554206940000                       # Cumulative time (in ticks) in various power states
system.cpu.dcache.pwrStateResidencyTicks::UNDEFINED 807554206940000                       # Cumulative time (in ticks) in various power states
system.cpu.dcache.tlbTagged.walker.pwrStateResidencyTicks::UNDEFINED 807554206940000                       # Cumulative time (in ticks) in various power states
system.cpu.dcache.tags.pwrStateResidencyTicks::UNDEFINED 807554206940000                       # Cumulative time (in ticks) in various power states
system.cpu.l2cache.pwrStateResidencyTicks::UNDEFINED 807554206940000                       # Cumulative time (in ticks) in various power states
system.cpu.l2cache.tlbTagged.walker.pwrStateResidencyTicks::UNDEFINED 807554206940000                       # Cumulative time (in ticks) in various power states
system.cpu.l2cache.tags.pwrStateResidencyTicks::UNDEFINED 807554206940000                       # Cumulative time (in ticks) in various power states
system.cpu.toL2Bus.pwrStateResidencyTicks::UNDEFINED 807554206940000                       # Cumulative time (in ticks) in various power states

---------- End Simulation Statistics   ----------