
---------- Begin Simulation Statistics ----------
final_tick                               807364632584500                       # Number of ticks from beginning of simulation (restored from checkpoints and never reset)
host_inst_rate                                  26253                       # Simulator instruction rate (inst/s)
host_mem_usage                               17082548                       # Number of bytes of host memory used
host_op_rate                                    43671                       # Simulator op (including micro ops) rate (op/s)
host_seconds                                  3809.06                       # Real time elapsed on the host
host_tick_rate                               25197126                       # Simulator tick rate (ticks/s)
sim_freq                                 1000000000000                       # Frequency of simulated ticks
sim_insts                                   100000000                       # Number of instructions simulated
sim_ops                                     166344222                       # Number of ops (including micro ops) simulated
sim_seconds                                  0.095977                       # Number of seconds simulated
sim_ticks                                 95977365250                       # Number of ticks simulated
system.cpu.committedInsts                           0                       # Number of instructions committed
system.cpu.dcache.DataMeta::0                       0                       # Distribution of access
system.cpu.dcache.DataMeta::1                       0                       # Distribution of access
system.cpu.dcache.DataMeta::2                       0                       # Distribution of access
system.cpu.dcache.DataMeta::3                       0                       # Distribution of access
system.cpu.dcache.HardPFReq_avg_mshr_miss_latency::.cpu.dcache.prefetcher 71377.890582                       # average HardPFReq mshr miss latency
system.cpu.dcache.HardPFReq_avg_mshr_miss_latency::total 71377.890582                       # average HardPFReq mshr miss latency
system.cpu.dcache.HardPFReq_mshr_miss_latency::.cpu.dcache.prefetcher 221765253050                       # number of HardPFReq MSHR miss cycles
system.cpu.dcache.HardPFReq_mshr_miss_latency::total 221765253050                       # number of HardPFReq MSHR miss cycles
system.cpu.dcache.HardPFReq_mshr_miss_rate::.cpu.dcache.prefetcher          inf                       # mshr miss rate for HardPFReq accesses
system.cpu.dcache.HardPFReq_mshr_miss_rate::total          inf                       # mshr miss rate for HardPFReq accesses
system.cpu.dcache.HardPFReq_mshr_misses::.cpu.dcache.prefetcher      3106918                       # number of HardPFReq MSHR misses
system.cpu.dcache.HardPFReq_mshr_misses::total      3106918                       # number of HardPFReq MSHR misses
system.cpu.dcache.ReadReq_accesses::.switch_cpus.data     13505381                       # number of ReadReq accesses(hits+misses)
system.cpu.dcache.ReadReq_accesses::total     13505381                       # number of ReadReq accesses(hits+misses)
system.cpu.dcache.ReadReq_avg_miss_latency::.switch_cpus.data 49257.359825                       # average ReadReq miss latency
system.cpu.dcache.ReadReq_avg_miss_latency::total 49257.359825                       # average ReadReq miss latency
system.cpu.dcache.ReadReq_avg_mshr_miss_latency::.switch_cpus.data 25071.321572                       # average ReadReq mshr miss latency
system.cpu.dcache.ReadReq_avg_mshr_miss_latency::total 25071.321572                       # average ReadReq mshr miss latency
system.cpu.dcache.ReadReq_hits::.switch_cpus.data     11220680                       # number of ReadReq hits
system.cpu.dcache.ReadReq_hits::total        11220680                       # number of ReadReq hits
system.cpu.dcache.ReadReq_miss_latency::.switch_cpus.data 112538339250                       # number of ReadReq miss cycles
system.cpu.dcache.ReadReq_miss_latency::total 112538339250                       # number of ReadReq miss cycles
system.cpu.dcache.ReadReq_miss_rate::.switch_cpus.data     0.169170                       # miss rate for ReadReq accesses
system.cpu.dcache.ReadReq_miss_rate::total     0.169170                       # miss rate for ReadReq accesses
system.cpu.dcache.ReadReq_misses::.switch_cpus.data      2284701                       # number of ReadReq misses
system.cpu.dcache.ReadReq_misses::total       2284701                       # number of ReadReq misses
system.cpu.dcache.ReadReq_mshr_hits::.switch_cpus.data      2108131                       # number of ReadReq MSHR hits
system.cpu.dcache.ReadReq_mshr_hits::total      2108131                       # number of ReadReq MSHR hits
system.cpu.dcache.ReadReq_mshr_miss_latency::.switch_cpus.data   4426843250                       # number of ReadReq MSHR miss cycles
system.cpu.dcache.ReadReq_mshr_miss_latency::total   4426843250                       # number of ReadReq MSHR miss cycles
system.cpu.dcache.ReadReq_mshr_miss_rate::.switch_cpus.data     0.013074                       # mshr miss rate for ReadReq accesses
system.cpu.dcache.ReadReq_mshr_miss_rate::total     0.013074                       # mshr miss rate for ReadReq accesses
system.cpu.dcache.ReadReq_mshr_misses::.switch_cpus.data       176570                       # number of ReadReq MSHR misses
system.cpu.dcache.ReadReq_mshr_misses::total       176570                       # number of ReadReq MSHR misses
system.cpu.dcache.SoftPFReq_accesses::.switch_cpus.data           52                       # number of SoftPFReq accesses(hits+misses)
system.cpu.dcache.SoftPFReq_accesses::total           52                       # number of SoftPFReq accesses(hits+misses)
system.cpu.dcache.SoftPFReq_avg_mshr_miss_latency::.switch_cpus.data 76315.476190                       # average SoftPFReq mshr miss latency
system.cpu.dcache.SoftPFReq_avg_mshr_miss_latency::total 76315.476190                       # average SoftPFReq mshr miss latency
system.cpu.dcache.SoftPFReq_hits::.switch_cpus.data           10                       # number of SoftPFReq hits
system.cpu.dcache.SoftPFReq_hits::total            10                       # number of SoftPFReq hits
system.cpu.dcache.SoftPFReq_miss_rate::.switch_cpus.data     0.807692                       # miss rate for SoftPFReq accesses
system.cpu.dcache.SoftPFReq_miss_rate::total     0.807692                       # miss rate for SoftPFReq accesses
system.cpu.dcache.SoftPFReq_misses::.switch_cpus.data           42                       # number of SoftPFReq misses
system.cpu.dcache.SoftPFReq_misses::total           42                       # number of SoftPFReq misses
system.cpu.dcache.SoftPFReq_mshr_miss_latency::.switch_cpus.data      3205250                       # number of SoftPFReq MSHR miss cycles
system.cpu.dcache.SoftPFReq_mshr_miss_latency::total      3205250                       # number of SoftPFReq MSHR miss cycles
system.cpu.dcache.SoftPFReq_mshr_miss_rate::.switch_cpus.data     0.807692                       # mshr miss rate for SoftPFReq accesses
system.cpu.dcache.SoftPFReq_mshr_miss_rate::total     0.807692                       # mshr miss rate for SoftPFReq accesses
system.cpu.dcache.SoftPFReq_mshr_misses::.switch_cpus.data           42                       # number of SoftPFReq MSHR misses
system.cpu.dcache.SoftPFReq_mshr_misses::total           42                       # number of SoftPFReq MSHR misses
system.cpu.dcache.WriteReq_accesses::.switch_cpus.data     37963443                       # number of WriteReq accesses(hits+misses)
system.cpu.dcache.WriteReq_accesses::total     37963443                       # number of WriteReq accesses(hits+misses)
system.cpu.dcache.WriteReq_avg_miss_latency::.switch_cpus.data 43583.818861                       # average WriteReq miss latency
system.cpu.dcache.WriteReq_avg_miss_latency::total 43583.818861                       # average WriteReq miss latency
system.cpu.dcache.WriteReq_avg_mshr_miss_latency::.switch_cpus.data 14132.213346                       # average WriteReq mshr miss latency
system.cpu.dcache.WriteReq_avg_mshr_miss_latency::total 14132.213346                       # average WriteReq mshr miss latency
system.cpu.dcache.WriteReq_hits::.switch_cpus.data     36699527                       # number of WriteReq hits
system.cpu.dcache.WriteReq_hits::total       36699527                       # number of WriteReq hits
system.cpu.dcache.WriteReq_miss_latency::.switch_cpus.data  55086286000                       # number of WriteReq miss cycles
system.cpu.dcache.WriteReq_miss_latency::total  55086286000                       # number of WriteReq miss cycles
system.cpu.dcache.WriteReq_miss_rate::.switch_cpus.data     0.033293                       # miss rate for WriteReq accesses
system.cpu.dcache.WriteReq_miss_rate::total     0.033293                       # miss rate for WriteReq accesses
system.cpu.dcache.WriteReq_misses::.switch_cpus.data      1263916                       # number of WriteReq misses
system.cpu.dcache.WriteReq_misses::total      1263916                       # number of WriteReq misses
system.cpu.dcache.WriteReq_mshr_hits::.switch_cpus.data       495410                       # number of WriteReq MSHR hits
system.cpu.dcache.WriteReq_mshr_hits::total       495410                       # number of WriteReq MSHR hits
system.cpu.dcache.WriteReq_mshr_miss_latency::.switch_cpus.data  10860690750                       # number of WriteReq MSHR miss cycles
system.cpu.dcache.WriteReq_mshr_miss_latency::total  10860690750                       # number of WriteReq MSHR miss cycles
system.cpu.dcache.WriteReq_mshr_miss_rate::.switch_cpus.data     0.020243                       # mshr miss rate for WriteReq accesses
system.cpu.dcache.WriteReq_mshr_miss_rate::total     0.020243                       # mshr miss rate for WriteReq accesses
system.cpu.dcache.WriteReq_mshr_misses::.switch_cpus.data       768506                       # number of WriteReq MSHR misses
system.cpu.dcache.WriteReq_mshr_misses::total       768506                       # number of WriteReq MSHR misses
system.cpu.dcache.WriteReq_mshr_uncacheable::.switch_cpus.data           96                       # number of WriteReq MSHR uncacheable
system.cpu.dcache.WriteReq_mshr_uncacheable::total           96                       # number of WriteReq MSHR uncacheable
system.cpu.dcache.avg_blocked_cycles::no_mshrs   151.520000                       # average number of cycles each access was blocked
system.cpu.dcache.avg_blocked_cycles::no_targets   345.250000                       # average number of cycles each access was blocked
system.cpu.dcache.blocked::no_mshrs                25                       # number of cycles access was blocked
system.cpu.dcache.blocked::no_targets               4                       # number of cycles access was blocked
system.cpu.dcache.blocked_cycles::no_mshrs         3788                       # number of cycles access was blocked
system.cpu.dcache.blocked_cycles::no_targets         1381                       # number of cycles access was blocked
system.cpu.dcache.demand_accesses::.switch_cpus.data     51468824                       # number of demand (read+write) accesses
system.cpu.dcache.demand_accesses::total     51468824                       # number of demand (read+write) accesses
system.cpu.dcache.demand_avg_miss_latency::.switch_cpus.data 47236.606613                       # average overall miss latency
system.cpu.dcache.demand_avg_miss_latency::total 47236.606613                       # average overall miss latency
system.cpu.dcache.demand_avg_mshr_miss_latency::.switch_cpus.data 16175.983730                       # average overall mshr miss latency
system.cpu.dcache.demand_avg_mshr_miss_latency::total 16175.983730                       # average overall mshr miss latency
system.cpu.dcache.demand_hits::.switch_cpus.data     47920207                       # number of demand (read+write) hits
system.cpu.dcache.demand_hits::total         47920207                       # number of demand (read+write) hits
system.cpu.dcache.demand_miss_latency::.switch_cpus.data 167624625250                       # number of demand (read+write) miss cycles
system.cpu.dcache.demand_miss_latency::total 167624625250                       # number of demand (read+write) miss cycles
system.cpu.dcache.demand_miss_rate::.switch_cpus.data     0.068947                       # miss rate for demand accesses
system.cpu.dcache.demand_miss_rate::total     0.068947                       # miss rate for demand accesses
system.cpu.dcache.demand_misses::.switch_cpus.data      3548617                       # number of demand (read+write) misses
system.cpu.dcache.demand_misses::total        3548617                       # number of demand (read+write) misses
system.cpu.dcache.demand_mshr_hits::.switch_cpus.data      2603541                       # number of demand (read+write) MSHR hits
system.cpu.dcache.demand_mshr_hits::total      2603541                       # number of demand (read+write) MSHR hits
system.cpu.dcache.demand_mshr_miss_latency::.switch_cpus.data  15287534000                       # number of demand (read+write) MSHR miss cycles
system.cpu.dcache.demand_mshr_miss_latency::total  15287534000                       # number of demand (read+write) MSHR miss cycles
system.cpu.dcache.demand_mshr_miss_rate::.switch_cpus.data     0.018362                       # mshr miss rate for demand accesses
system.cpu.dcache.demand_mshr_miss_rate::total     0.018362                       # mshr miss rate for demand accesses
system.cpu.dcache.demand_mshr_misses::.switch_cpus.data       945076                       # number of demand (read+write) MSHR misses
system.cpu.dcache.demand_mshr_misses::total       945076                       # number of demand (read+write) MSHR misses
system.cpu.dcache.overall_accesses::.switch_cpus.data     51468876                       # number of overall (read+write) accesses
system.cpu.dcache.overall_accesses::total     51468876                       # number of overall (read+write) accesses
system.cpu.dcache.overall_avg_miss_latency::.switch_cpus.data 47236.047546                       # average overall miss latency
system.cpu.dcache.overall_avg_miss_latency::total 47236.047546                       # average overall miss latency
system.cpu.dcache.overall_avg_mshr_miss_latency::.cpu.dcache.prefetcher 71377.890582                       # average overall mshr miss latency
system.cpu.dcache.overall_avg_mshr_miss_latency::.switch_cpus.data 16178.656263                       # average overall mshr miss latency
system.cpu.dcache.overall_avg_mshr_miss_latency::total 58502.933414                       # average overall mshr miss latency
system.cpu.dcache.overall_hits::.switch_cpus.data     47920217                       # number of overall hits
system.cpu.dcache.overall_hits::total        47920217                       # number of overall hits
system.cpu.dcache.overall_miss_latency::.switch_cpus.data 167624625250                       # number of overall miss cycles
system.cpu.dcache.overall_miss_latency::total 167624625250                       # number of overall miss cycles
system.cpu.dcache.overall_miss_rate::.switch_cpus.data     0.068948                       # miss rate for overall accesses
system.cpu.dcache.overall_miss_rate::total     0.068948                       # miss rate for overall accesses
system.cpu.dcache.overall_misses::.switch_cpus.data      3548659                       # number of overall misses
system.cpu.dcache.overall_misses::total       3548659                       # number of overall misses
system.cpu.dcache.overall_mshr_hits::.switch_cpus.data      2603541                       # number of overall MSHR hits
system.cpu.dcache.overall_mshr_hits::total      2603541                       # number of overall MSHR hits
system.cpu.dcache.overall_mshr_miss_latency::.cpu.dcache.prefetcher 221765253050                       # number of overall MSHR miss cycles
system.cpu.dcache.overall_mshr_miss_latency::.switch_cpus.data  15290739250                       # number of overall MSHR miss cycles
system.cpu.dcache.overall_mshr_miss_latency::total 237055992300                       # number of overall MSHR miss cycles
system.cpu.dcache.overall_mshr_miss_rate::.cpu.dcache.prefetcher          inf                       # mshr miss rate for overall accesses
system.cpu.dcache.overall_mshr_miss_rate::.switch_cpus.data     0.018363                       # mshr miss rate for overall accesses
system.cpu.dcache.overall_mshr_miss_rate::total     0.078728                       # mshr miss rate for overall accesses
system.cpu.dcache.overall_mshr_misses::.cpu.dcache.prefetcher      3106918                       # number of overall MSHR misses
system.cpu.dcache.overall_mshr_misses::.switch_cpus.data       945118                       # number of overall MSHR misses
system.cpu.dcache.overall_mshr_misses::total      4052036                       # number of overall MSHR misses
system.cpu.dcache.overall_mshr_uncacheable_misses::.switch_cpus.data           96                       # number of overall MSHR uncacheable misses
system.cpu.dcache.overall_mshr_uncacheable_misses::total           96                       # number of overall MSHR uncacheable misses
system.cpu.dcache.prefetcher.num_hwpf_issued      6398105                       # number of hwpf issued
system.cpu.dcache.prefetcher.pfBufferHit       322576                       # number of redundant prefetches already in prefetch queue
system.cpu.dcache.prefetcher.pfIdentified      6886417                       # number of prefetch candidates identified
system.cpu.dcache.prefetcher.pfInCache              0                       # number of redundant prefetches already in cache/mshr dropped
system.cpu.dcache.prefetcher.pfRemovedFull            0                       # number of prefetches dropped due to prefetch queue size
system.cpu.dcache.prefetcher.pfSpanPage        210817                       # number of prefetches that crossed the page
system.cpu.dcache.replacements                4049914                       # number of replacements
system.cpu.dcache.tags.age_task_id_blocks_1022::0          226                       # Occupied blocks per task id
system.cpu.dcache.tags.age_task_id_blocks_1022::1          456                       # Occupied blocks per task id
system.cpu.dcache.tags.age_task_id_blocks_1025::0          110                       # Occupied blocks per task id
system.cpu.dcache.tags.age_task_id_blocks_1025::1          230                       # Occupied blocks per task id
system.cpu.dcache.tags.age_task_id_blocks_1025::3            2                       # Occupied blocks per task id
system.cpu.dcache.tags.avg_refs             12.380213                       # Average number of references to valid blocks.
system.cpu.dcache.tags.data_accesses        415801946                       # Number of data accesses
system.cpu.dcache.tags.occ_blocks::.cpu.dcache.prefetcher   774.957561                       # Average occupied blocks per requestor
system.cpu.dcache.tags.occ_blocks::.switch_cpus.data   248.928148                       # Average occupied blocks per requestor
system.cpu.dcache.tags.occ_percent::.cpu.dcache.prefetcher     0.756794                       # Average percentage of cache occupancy
system.cpu.dcache.tags.occ_percent::.switch_cpus.data     0.243094                       # Average percentage of cache occupancy
system.cpu.dcache.tags.occ_percent::total     0.999888                       # Average percentage of cache occupancy
system.cpu.dcache.tags.occ_task_id_blocks::1022          682                       # Occupied blocks per task id
system.cpu.dcache.tags.occ_task_id_blocks::1025          342                       # Occupied blocks per task id
system.cpu.dcache.tags.occ_task_id_percent::1022     0.666016                       # Percentage of cache occupancy per task id
system.cpu.dcache.tags.occ_task_id_percent::1025     0.333984                       # Percentage of cache occupancy per task id
system.cpu.dcache.tags.sampled_refs           4049914                       # Sample count of references to valid blocks.
system.cpu.dcache.tags.tag_accesses         415801946                       # Number of tag accesses
system.cpu.dcache.tags.tagsinuse          1023.885710                       # Cycle average of tags in use
system.cpu.dcache.tags.total_refs            50138798                       # Total number of references to valid blocks.
system.cpu.dcache.tags.warmup_cycle      807268655811000                       # Cycle when the warmup percentage was hit.
system.cpu.dcache.tlbTagged.rdAccesses              0                       # TLB accesses on read requests
system.cpu.dcache.tlbTagged.rdMisses                0                       # TLB misses on read requests
system.cpu.dcache.tlbTagged.wrAccesses              0                       # TLB accesses on write requests
system.cpu.dcache.tlbTagged.wrMisses                0                       # TLB misses on write requests
system.cpu.dcache.unused_prefetches            121835                       # number of HardPF blocks evicted w/o reference
system.cpu.dcache.writebacks::.writebacks      3218732                       # number of writebacks
system.cpu.dcache.writebacks::total           3218732                       # number of writebacks
system.cpu.dtb.rdAccesses                           0                       # TLB accesses on read requests
system.cpu.dtb.rdMisses                             0                       # TLB misses on read requests
system.cpu.dtb.wrAccesses                           0                       # TLB accesses on write requests
system.cpu.dtb.wrMisses                             0                       # TLB misses on write requests
system.cpu.dtb_walker_cache.DataMeta::0             0                       # Distribution of access
system.cpu.dtb_walker_cache.DataMeta::1             0                       # Distribution of access
system.cpu.dtb_walker_cache.DataMeta::2             0                       # Distribution of access
system.cpu.dtb_walker_cache.DataMeta::3             0                       # Distribution of access
system.cpu.dtb_walker_cache.ReadReq_accesses::.switch_cpus.dtb.walker        23844                       # number of ReadReq accesses(hits+misses)
system.cpu.dtb_walker_cache.ReadReq_accesses::total        23844                       # number of ReadReq accesses(hits+misses)
system.cpu.dtb_walker_cache.ReadReq_avg_miss_latency::.switch_cpus.dtb.walker 19517.958893                       # average ReadReq miss latency
system.cpu.dtb_walker_cache.ReadReq_avg_miss_latency::total 19517.958893                       # average ReadReq miss latency
system.cpu.dtb_walker_cache.ReadReq_avg_mshr_miss_latency::.switch_cpus.dtb.walker 19017.958893                       # average ReadReq mshr miss latency
system.cpu.dtb_walker_cache.ReadReq_avg_mshr_miss_latency::total 19017.958893                       # average ReadReq mshr miss latency
system.cpu.dtb_walker_cache.ReadReq_hits::.switch_cpus.dtb.walker        18930                       # number of ReadReq hits
system.cpu.dtb_walker_cache.ReadReq_hits::total        18930                       # number of ReadReq hits
system.cpu.dtb_walker_cache.ReadReq_miss_latency::.switch_cpus.dtb.walker     95911250                       # number of ReadReq miss cycles
system.cpu.dtb_walker_cache.ReadReq_miss_latency::total     95911250                       # number of ReadReq miss cycles
system.cpu.dtb_walker_cache.ReadReq_miss_rate::.switch_cpus.dtb.walker     0.206090                       # miss rate for ReadReq accesses
system.cpu.dtb_walker_cache.ReadReq_miss_rate::total     0.206090                       # miss rate for ReadReq accesses
system.cpu.dtb_walker_cache.ReadReq_misses::.switch_cpus.dtb.walker         4914                       # number of ReadReq misses
system.cpu.dtb_walker_cache.ReadReq_misses::total         4914                       # number of ReadReq misses
system.cpu.dtb_walker_cache.ReadReq_mshr_miss_latency::.switch_cpus.dtb.walker     93454250                       # number of ReadReq MSHR miss cycles
system.cpu.dtb_walker_cache.ReadReq_mshr_miss_latency::total     93454250                       # number of ReadReq MSHR miss cycles
system.cpu.dtb_walker_cache.ReadReq_mshr_miss_rate::.switch_cpus.dtb.walker     0.206090                       # mshr miss rate for ReadReq accesses
system.cpu.dtb_walker_cache.ReadReq_mshr_miss_rate::total     0.206090                       # mshr miss rate for ReadReq accesses
system.cpu.dtb_walker_cache.ReadReq_mshr_misses::.switch_cpus.dtb.walker         4914                       # number of ReadReq MSHR misses
system.cpu.dtb_walker_cache.ReadReq_mshr_misses::total         4914                       # number of ReadReq MSHR misses
system.cpu.dtb_walker_cache.avg_blocked_cycles::no_mshrs          nan                       # average number of cycles each access was blocked
system.cpu.dtb_walker_cache.avg_blocked_cycles::no_targets          nan                       # average number of cycles each access was blocked
system.cpu.dtb_walker_cache.blocked::no_mshrs            0                       # number of cycles access was blocked
system.cpu.dtb_walker_cache.blocked::no_targets            0                       # number of cycles access was blocked
system.cpu.dtb_walker_cache.blocked_cycles::no_mshrs            0                       # number of cycles access was blocked
system.cpu.dtb_walker_cache.blocked_cycles::no_targets            0                       # number of cycles access was blocked
system.cpu.dtb_walker_cache.demand_accesses::.switch_cpus.dtb.walker        23844                       # number of demand (read+write) accesses
system.cpu.dtb_walker_cache.demand_accesses::total        23844                       # number of demand (read+write) accesses
system.cpu.dtb_walker_cache.demand_avg_miss_latency::.switch_cpus.dtb.walker 19517.958893                       # average overall miss latency
system.cpu.dtb_walker_cache.demand_avg_miss_latency::total 19517.958893                       # average overall miss latency
system.cpu.dtb_walker_cache.demand_avg_mshr_miss_latency::.switch_cpus.dtb.walker 19017.958893                       # average overall mshr miss latency
system.cpu.dtb_walker_cache.demand_avg_mshr_miss_latency::total 19017.958893                       # average overall mshr miss latency
system.cpu.dtb_walker_cache.demand_hits::.switch_cpus.dtb.walker        18930                       # number of demand (read+write) hits
system.cpu.dtb_walker_cache.demand_hits::total        18930                       # number of demand (read+write) hits
system.cpu.dtb_walker_cache.demand_miss_latency::.switch_cpus.dtb.walker     95911250                       # number of demand (read+write) miss cycles
system.cpu.dtb_walker_cache.demand_miss_latency::total     95911250                       # number of demand (read+write) miss cycles
system.cpu.dtb_walker_cache.demand_miss_rate::.switch_cpus.dtb.walker     0.206090                       # miss rate for demand accesses
system.cpu.dtb_walker_cache.demand_miss_rate::total     0.206090                       # miss rate for demand accesses
system.cpu.dtb_walker_cache.demand_misses::.switch_cpus.dtb.walker         4914                       # number of demand (read+write) misses
system.cpu.dtb_walker_cache.demand_misses::total         4914                       # number of demand (read+write) misses
system.cpu.dtb_walker_cache.demand_mshr_miss_latency::.switch_cpus.dtb.walker     93454250                       # number of demand (read+write) MSHR miss cycles
system.cpu.dtb_walker_cache.demand_mshr_miss_latency::total     93454250                       # number of demand (read+write) MSHR miss cycles
system.cpu.dtb_walker_cache.demand_mshr_miss_rate::.switch_cpus.dtb.walker     0.206090                       # mshr miss rate for demand accesses
system.cpu.dtb_walker_cache.demand_mshr_miss_rate::total     0.206090                       # mshr miss rate for demand accesses
system.cpu.dtb_walker_cache.demand_mshr_misses::.switch_cpus.dtb.walker         4914                       # number of demand (read+write) MSHR misses
system.cpu.dtb_walker_cache.demand_mshr_misses::total         4914                       # number of demand (read+write) MSHR misses
system.cpu.dtb_walker_cache.overall_accesses::.switch_cpus.dtb.walker        23844                       # number of overall (read+write) accesses
system.cpu.dtb_walker_cache.overall_accesses::total        23844                       # number of overall (read+write) accesses
system.cpu.dtb_walker_cache.overall_avg_miss_latency::.switch_cpus.dtb.walker 19517.958893                       # average overall miss latency
system.cpu.dtb_walker_cache.overall_avg_miss_latency::total 19517.958893                       # average overall miss latency
system.cpu.dtb_walker_cache.overall_avg_mshr_miss_latency::.switch_cpus.dtb.walker 19017.958893                       # average overall mshr miss latency
system.cpu.dtb_walker_cache.overall_avg_mshr_miss_latency::total 19017.958893                       # average overall mshr miss latency
system.cpu.dtb_walker_cache.overall_hits::.switch_cpus.dtb.walker        18930                       # number of overall hits
system.cpu.dtb_walker_cache.overall_hits::total        18930                       # number of overall hits
system.cpu.dtb_walker_cache.overall_miss_latency::.switch_cpus.dtb.walker     95911250                       # number of overall miss cycles
system.cpu.dtb_walker_cache.overall_miss_latency::total     95911250                       # number of overall miss cycles
system.cpu.dtb_walker_cache.overall_miss_rate::.switch_cpus.dtb.walker     0.206090                       # miss rate for overall accesses
system.cpu.dtb_walker_cache.overall_miss_rate::total     0.206090                       # miss rate for overall accesses
system.cpu.dtb_walker_cache.overall_misses::.switch_cpus.dtb.walker         4914                       # number of overall misses
system.cpu.dtb_walker_cache.overall_misses::total         4914                       # number of overall misses
system.cpu.dtb_walker_cache.overall_mshr_miss_latency::.switch_cpus.dtb.walker     93454250                       # number of overall MSHR miss cycles
system.cpu.dtb_walker_cache.overall_mshr_miss_latency::total     93454250                       # number of overall MSHR miss cycles
system.cpu.dtb_walker_cache.overall_mshr_miss_rate::.switch_cpus.dtb.walker     0.206090                       # mshr miss rate for overall accesses
system.cpu.dtb_walker_cache.overall_mshr_miss_rate::total     0.206090                       # mshr miss rate for overall accesses
system.cpu.dtb_walker_cache.overall_mshr_misses::.switch_cpus.dtb.walker         4914                       # number of overall MSHR misses
system.cpu.dtb_walker_cache.overall_mshr_misses::total         4914                       # number of overall MSHR misses
system.cpu.dtb_walker_cache.replacements         4857                       # number of replacements
system.cpu.dtb_walker_cache.tags.age_task_id_blocks_1025::2            2                       # Occupied blocks per task id
system.cpu.dtb_walker_cache.tags.age_task_id_blocks_1025::3            6                       # Occupied blocks per task id
system.cpu.dtb_walker_cache.tags.age_task_id_blocks_1025::4            8                       # Occupied blocks per task id
system.cpu.dtb_walker_cache.tags.avg_refs     4.622703                       # Average number of references to valid blocks.
system.cpu.dtb_walker_cache.tags.data_accesses        52602                       # Number of data accesses
system.cpu.dtb_walker_cache.tags.occ_blocks::.switch_cpus.dtb.walker    15.811213                       # Average occupied blocks per requestor
system.cpu.dtb_walker_cache.tags.occ_percent::.switch_cpus.dtb.walker     0.988201                       # Average percentage of cache occupancy
system.cpu.dtb_walker_cache.tags.occ_percent::total     0.988201                       # Average percentage of cache occupancy
system.cpu.dtb_walker_cache.tags.occ_task_id_blocks::1025           16                       # Occupied blocks per task id
system.cpu.dtb_walker_cache.tags.occ_task_id_percent::1025            1                       # Percentage of cache occupancy per task id
system.cpu.dtb_walker_cache.tags.sampled_refs         4898                       # Sample count of references to valid blocks.
system.cpu.dtb_walker_cache.tags.tag_accesses        52602                       # Number of tag accesses
system.cpu.dtb_walker_cache.tags.tagsinuse    15.811213                       # Cycle average of tags in use
system.cpu.dtb_walker_cache.tags.total_refs        22642                       # Total number of references to valid blocks.
system.cpu.dtb_walker_cache.tags.warmup_cycle 807268655653000                       # Cycle when the warmup percentage was hit.
system.cpu.dtb_walker_cache.tlbTagged.rdAccesses            0                       # TLB accesses on read requests
system.cpu.dtb_walker_cache.tlbTagged.rdMisses            0                       # TLB misses on read requests
system.cpu.dtb_walker_cache.tlbTagged.wrAccesses            0                       # TLB accesses on write requests
system.cpu.dtb_walker_cache.tlbTagged.wrMisses            0                       # TLB misses on write requests
system.cpu.icache.DataMeta::0                       0                       # Distribution of access
system.cpu.icache.DataMeta::1                       0                       # Distribution of access
system.cpu.icache.DataMeta::2                       0                       # Distribution of access
system.cpu.icache.DataMeta::3                       0                       # Distribution of access
system.cpu.icache.ReadReq_accesses::.switch_cpus.inst      8712770                       # number of ReadReq accesses(hits+misses)
system.cpu.icache.ReadReq_accesses::total      8712770                       # number of ReadReq accesses(hits+misses)
system.cpu.icache.ReadReq_avg_miss_latency::.switch_cpus.inst 48195.580781                       # average ReadReq miss latency
system.cpu.icache.ReadReq_avg_miss_latency::total 48195.580781                       # average ReadReq miss latency
system.cpu.icache.ReadReq_avg_mshr_miss_latency::.switch_cpus.inst 47590.799893                       # average ReadReq mshr miss latency
system.cpu.icache.ReadReq_avg_mshr_miss_latency::total 47590.799893                       # average ReadReq mshr miss latency
system.cpu.icache.ReadReq_hits::.switch_cpus.inst      8698763                       # number of ReadReq hits
system.cpu.icache.ReadReq_hits::total         8698763                       # number of ReadReq hits
system.cpu.icache.ReadReq_miss_latency::.switch_cpus.inst    675075500                       # number of ReadReq miss cycles
system.cpu.icache.ReadReq_miss_latency::total    675075500                       # number of ReadReq miss cycles
system.cpu.icache.ReadReq_miss_rate::.switch_cpus.inst     0.001608                       # miss rate for ReadReq accesses
system.cpu.icache.ReadReq_miss_rate::total     0.001608                       # miss rate for ReadReq accesses
system.cpu.icache.ReadReq_misses::.switch_cpus.inst        14007                       # number of ReadReq misses
system.cpu.icache.ReadReq_misses::total         14007                       # number of ReadReq misses
system.cpu.icache.ReadReq_mshr_hits::.switch_cpus.inst         2768                       # number of ReadReq MSHR hits
system.cpu.icache.ReadReq_mshr_hits::total         2768                       # number of ReadReq MSHR hits
system.cpu.icache.ReadReq_mshr_miss_latency::.switch_cpus.inst    534873000                       # number of ReadReq MSHR miss cycles
system.cpu.icache.ReadReq_mshr_miss_latency::total    534873000                       # number of ReadReq MSHR miss cycles
system.cpu.icache.ReadReq_mshr_miss_rate::.switch_cpus.inst     0.001290                       # mshr miss rate for ReadReq accesses
system.cpu.icache.ReadReq_mshr_miss_rate::total     0.001290                       # mshr miss rate for ReadReq accesses
system.cpu.icache.ReadReq_mshr_misses::.switch_cpus.inst        11239                       # number of ReadReq MSHR misses
system.cpu.icache.ReadReq_mshr_misses::total        11239                       # number of ReadReq MSHR misses
system.cpu.icache.avg_blocked_cycles::no_mshrs          nan                       # average number of cycles each access was blocked
system.cpu.icache.avg_blocked_cycles::no_targets          nan                       # average number of cycles each access was blocked
system.cpu.icache.blocked::no_mshrs                 0                       # number of cycles access was blocked
system.cpu.icache.blocked::no_targets               0                       # number of cycles access was blocked
system.cpu.icache.blocked_cycles::no_mshrs            0                       # number of cycles access was blocked
system.cpu.icache.blocked_cycles::no_targets            0                       # number of cycles access was blocked
system.cpu.icache.demand_accesses::.switch_cpus.inst      8712770                       # number of demand (read+write) accesses
system.cpu.icache.demand_accesses::total      8712770                       # number of demand (read+write) accesses
system.cpu.icache.demand_avg_miss_latency::.switch_cpus.inst 48195.580781                       # average overall miss latency
system.cpu.icache.demand_avg_miss_latency::total 48195.580781                       # average overall miss latency
system.cpu.icache.demand_avg_mshr_miss_latency::.switch_cpus.inst 47590.799893                       # average overall mshr miss latency
system.cpu.icache.demand_avg_mshr_miss_latency::total 47590.799893                       # average overall mshr miss latency
system.cpu.icache.demand_hits::.switch_cpus.inst      8698763                       # number of demand (read+write) hits
system.cpu.icache.demand_hits::total          8698763                       # number of demand (read+write) hits
system.cpu.icache.demand_miss_latency::.switch_cpus.inst    675075500                       # number of demand (read+write) miss cycles
system.cpu.icache.demand_miss_latency::total    675075500                       # number of demand (read+write) miss cycles
system.cpu.icache.demand_miss_rate::.switch_cpus.inst     0.001608                       # miss rate for demand accesses
system.cpu.icache.demand_miss_rate::total     0.001608                       # miss rate for demand accesses
system.cpu.icache.demand_misses::.switch_cpus.inst        14007                       # number of demand (read+write) misses
system.cpu.icache.demand_misses::total          14007                       # number of demand (read+write) misses
system.cpu.icache.demand_mshr_hits::.switch_cpus.inst         2768                       # number of demand (read+write) MSHR hits
system.cpu.icache.demand_mshr_hits::total         2768                       # number of demand (read+write) MSHR hits
system.cpu.icache.demand_mshr_miss_latency::.switch_cpus.inst    534873000                       # number of demand (read+write) MSHR miss cycles
system.cpu.icache.demand_mshr_miss_latency::total    534873000                       # number of demand (read+write) MSHR miss cycles
system.cpu.icache.demand_mshr_miss_rate::.switch_cpus.inst     0.001290                       # mshr miss rate for demand accesses
system.cpu.icache.demand_mshr_miss_rate::total     0.001290                       # mshr miss rate for demand accesses
system.cpu.icache.demand_mshr_misses::.switch_cpus.inst        11239                       # number of demand (read+write) MSHR misses
system.cpu.icache.demand_mshr_misses::total        11239                       # number of demand (read+write) MSHR misses
system.cpu.icache.overall_accesses::.switch_cpus.inst      8712770                       # number of overall (read+write) accesses
system.cpu.icache.overall_accesses::total      8712770                       # number of overall (read+write) accesses
system.cpu.icache.overall_avg_miss_latency::.switch_cpus.inst 48195.580781                       # average overall miss latency
system.cpu.icache.overall_avg_miss_latency::total 48195.580781                       # average overall miss latency
system.cpu.icache.overall_avg_mshr_miss_latency::.switch_cpus.inst 47590.799893                       # average overall mshr miss latency
system.cpu.icache.overall_avg_mshr_miss_latency::total 47590.799893                       # average overall mshr miss latency
system.cpu.icache.overall_hits::.switch_cpus.inst      8698763                       # number of overall hits
system.cpu.icache.overall_hits::total         8698763                       # number of overall hits
system.cpu.icache.overall_miss_latency::.switch_cpus.inst    675075500                       # number of overall miss cycles
system.cpu.icache.overall_miss_latency::total    675075500                       # number of overall miss cycles
system.cpu.icache.overall_miss_rate::.switch_cpus.inst     0.001608                       # miss rate for overall accesses
system.cpu.icache.overall_miss_rate::total     0.001608                       # miss rate for overall accesses
system.cpu.icache.overall_misses::.switch_cpus.inst        14007                       # number of overall misses
system.cpu.icache.overall_misses::total         14007                       # number of overall misses
system.cpu.icache.overall_mshr_hits::.switch_cpus.inst         2768                       # number of overall MSHR hits
system.cpu.icache.overall_mshr_hits::total         2768                       # number of overall MSHR hits
system.cpu.icache.overall_mshr_miss_latency::.switch_cpus.inst    534873000                       # number of overall MSHR miss cycles
system.cpu.icache.overall_mshr_miss_latency::total    534873000                       # number of overall MSHR miss cycles
system.cpu.icache.overall_mshr_miss_rate::.switch_cpus.inst     0.001290                       # mshr miss rate for overall accesses
system.cpu.icache.overall_mshr_miss_rate::total     0.001290                       # mshr miss rate for overall accesses
system.cpu.icache.overall_mshr_misses::.switch_cpus.inst        11239                       # number of overall MSHR misses
system.cpu.icache.overall_mshr_misses::total        11239                       # number of overall MSHR misses
system.cpu.icache.replacements                  10727                       # number of replacements
system.cpu.icache.tags.age_task_id_blocks_1025::2           13                       # Occupied blocks per task id
system.cpu.icache.tags.age_task_id_blocks_1025::3          150                       # Occupied blocks per task id
system.cpu.icache.tags.age_task_id_blocks_1025::4          349                       # Occupied blocks per task id
system.cpu.icache.tags.avg_refs            216.247693                       # Average number of references to valid blocks.
system.cpu.icache.tags.data_accesses         34862319                       # Number of data accesses
system.cpu.icache.tags.occ_blocks::.switch_cpus.inst   485.901037                       # Average occupied blocks per requestor
system.cpu.icache.tags.occ_percent::.switch_cpus.inst     0.949025                       # Average percentage of cache occupancy
system.cpu.icache.tags.occ_percent::total     0.949025                       # Average percentage of cache occupancy
system.cpu.icache.tags.occ_task_id_blocks::1025          512                       # Occupied blocks per task id
system.cpu.icache.tags.occ_task_id_percent::1025            1                       # Percentage of cache occupancy per task id
system.cpu.icache.tags.sampled_refs             10727                       # Sample count of references to valid blocks.
system.cpu.icache.tags.tag_accesses          34862319                       # Number of tag accesses
system.cpu.icache.tags.tagsinuse           485.901037                       # Cycle average of tags in use
system.cpu.icache.tags.total_refs             2319689                       # Total number of references to valid blocks.
system.cpu.icache.tags.warmup_cycle      807268655647000                       # Cycle when the warmup percentage was hit.
system.cpu.icache.tlbTagged.rdAccesses              0                       # TLB accesses on read requests
system.cpu.icache.tlbTagged.rdMisses                0                       # TLB misses on read requests
system.cpu.icache.tlbTagged.wrAccesses              0                       # TLB accesses on write requests
system.cpu.icache.tlbTagged.wrMisses                0                       # TLB misses on write requests
system.cpu.icache.writebacks::.writebacks        10727                       # number of writebacks
system.cpu.icache.writebacks::total             10727                       # number of writebacks
system.cpu.itb.rdAccesses                           0                       # TLB accesses on read requests
system.cpu.itb.rdMisses                             0                       # TLB misses on read requests
system.cpu.itb.wrAccesses                           0                       # TLB accesses on write requests
system.cpu.itb.wrMisses                             0                       # TLB misses on write requests
system.cpu.itb_walker_cache.DataMeta::0             0                       # Distribution of access
system.cpu.itb_walker_cache.DataMeta::1             0                       # Distribution of access
system.cpu.itb_walker_cache.DataMeta::2             0                       # Distribution of access
system.cpu.itb_walker_cache.DataMeta::3             0                       # Distribution of access
system.cpu.itb_walker_cache.ReadReq_accesses::.switch_cpus.itb.walker          335                       # number of ReadReq accesses(hits+misses)
system.cpu.itb_walker_cache.ReadReq_accesses::total          335                       # number of ReadReq accesses(hits+misses)
system.cpu.itb_walker_cache.ReadReq_avg_miss_latency::.switch_cpus.itb.walker 44759.868421                       # average ReadReq miss latency
system.cpu.itb_walker_cache.ReadReq_avg_miss_latency::total 44759.868421                       # average ReadReq miss latency
system.cpu.itb_walker_cache.ReadReq_avg_mshr_miss_latency::.switch_cpus.itb.walker 44259.868421                       # average ReadReq mshr miss latency
system.cpu.itb_walker_cache.ReadReq_avg_mshr_miss_latency::total 44259.868421                       # average ReadReq mshr miss latency
system.cpu.itb_walker_cache.ReadReq_hits::.switch_cpus.itb.walker          259                       # number of ReadReq hits
system.cpu.itb_walker_cache.ReadReq_hits::total          259                       # number of ReadReq hits
system.cpu.itb_walker_cache.ReadReq_miss_latency::.switch_cpus.itb.walker      3401750                       # number of ReadReq miss cycles
system.cpu.itb_walker_cache.ReadReq_miss_latency::total      3401750                       # number of ReadReq miss cycles
system.cpu.itb_walker_cache.ReadReq_miss_rate::.switch_cpus.itb.walker     0.226866                       # miss rate for ReadReq accesses
system.cpu.itb_walker_cache.ReadReq_miss_rate::total     0.226866                       # miss rate for ReadReq accesses
system.cpu.itb_walker_cache.ReadReq_misses::.switch_cpus.itb.walker           76                       # number of ReadReq misses
system.cpu.itb_walker_cache.ReadReq_misses::total           76                       # number of ReadReq misses
system.cpu.itb_walker_cache.ReadReq_mshr_miss_latency::.switch_cpus.itb.walker      3363750                       # number of ReadReq MSHR miss cycles
system.cpu.itb_walker_cache.ReadReq_mshr_miss_latency::total      3363750                       # number of ReadReq MSHR miss cycles
system.cpu.itb_walker_cache.ReadReq_mshr_miss_rate::.switch_cpus.itb.walker     0.226866                       # mshr miss rate for ReadReq accesses
system.cpu.itb_walker_cache.ReadReq_mshr_miss_rate::total     0.226866                       # mshr miss rate for ReadReq accesses
system.cpu.itb_walker_cache.ReadReq_mshr_misses::.switch_cpus.itb.walker           76                       # number of ReadReq MSHR misses
system.cpu.itb_walker_cache.ReadReq_mshr_misses::total           76                       # number of ReadReq MSHR misses
system.cpu.itb_walker_cache.avg_blocked_cycles::no_mshrs          nan                       # average number of cycles each access was blocked
system.cpu.itb_walker_cache.avg_blocked_cycles::no_targets          nan                       # average number of cycles each access was blocked
system.cpu.itb_walker_cache.blocked::no_mshrs            0                       # number of cycles access was blocked
system.cpu.itb_walker_cache.blocked::no_targets            0                       # number of cycles access was blocked
system.cpu.itb_walker_cache.blocked_cycles::no_mshrs            0                       # number of cycles access was blocked
system.cpu.itb_walker_cache.blocked_cycles::no_targets            0                       # number of cycles access was blocked
system.cpu.itb_walker_cache.demand_accesses::.switch_cpus.itb.walker          335                       # number of demand (read+write) accesses
system.cpu.itb_walker_cache.demand_accesses::total          335                       # number of demand (read+write) accesses
system.cpu.itb_walker_cache.demand_avg_miss_latency::.switch_cpus.itb.walker 44759.868421                       # average overall miss latency
system.cpu.itb_walker_cache.demand_avg_miss_latency::total 44759.868421                       # average overall miss latency
system.cpu.itb_walker_cache.demand_avg_mshr_miss_latency::.switch_cpus.itb.walker 44259.868421                       # average overall mshr miss latency
system.cpu.itb_walker_cache.demand_avg_mshr_miss_latency::total 44259.868421                       # average overall mshr miss latency
system.cpu.itb_walker_cache.demand_hits::.switch_cpus.itb.walker          259                       # number of demand (read+write) hits
system.cpu.itb_walker_cache.demand_hits::total          259                       # number of demand (read+write) hits
system.cpu.itb_walker_cache.demand_miss_latency::.switch_cpus.itb.walker      3401750                       # number of demand (read+write) miss cycles
system.cpu.itb_walker_cache.demand_miss_latency::total      3401750                       # number of demand (read+write) miss cycles
system.cpu.itb_walker_cache.demand_miss_rate::.switch_cpus.itb.walker     0.226866                       # miss rate for demand accesses
system.cpu.itb_walker_cache.demand_miss_rate::total     0.226866                       # miss rate for demand accesses
system.cpu.itb_walker_cache.demand_misses::.switch_cpus.itb.walker           76                       # number of demand (read+write) misses
system.cpu.itb_walker_cache.demand_misses::total           76                       # number of demand (read+write) misses
system.cpu.itb_walker_cache.demand_mshr_miss_latency::.switch_cpus.itb.walker      3363750                       # number of demand (read+write) MSHR miss cycles
system.cpu.itb_walker_cache.demand_mshr_miss_latency::total      3363750                       # number of demand (read+write) MSHR miss cycles
system.cpu.itb_walker_cache.demand_mshr_miss_rate::.switch_cpus.itb.walker     0.226866                       # mshr miss rate for demand accesses
system.cpu.itb_walker_cache.demand_mshr_miss_rate::total     0.226866                       # mshr miss rate for demand accesses
system.cpu.itb_walker_cache.demand_mshr_misses::.switch_cpus.itb.walker           76                       # number of demand (read+write) MSHR misses
system.cpu.itb_walker_cache.demand_mshr_misses::total           76                       # number of demand (read+write) MSHR misses
system.cpu.itb_walker_cache.overall_accesses::.switch_cpus.itb.walker          335                       # number of overall (read+write) accesses
system.cpu.itb_walker_cache.overall_accesses::total          335                       # number of overall (read+write) accesses
system.cpu.itb_walker_cache.overall_avg_miss_latency::.switch_cpus.itb.walker 44759.868421                       # average overall miss latency
system.cpu.itb_walker_cache.overall_avg_miss_latency::total 44759.868421                       # average overall miss latency
system.cpu.itb_walker_cache.overall_avg_mshr_miss_latency::.switch_cpus.itb.walker 44259.868421                       # average overall mshr miss latency
system.cpu.itb_walker_cache.overall_avg_mshr_miss_latency::total 44259.868421                       # average overall mshr miss latency
system.cpu.itb_walker_cache.overall_hits::.switch_cpus.itb.walker          259                       # number of overall hits
system.cpu.itb_walker_cache.overall_hits::total          259                       # number of overall hits
system.cpu.itb_walker_cache.overall_miss_latency::.switch_cpus.itb.walker      3401750                       # number of overall miss cycles
system.cpu.itb_walker_cache.overall_miss_latency::total      3401750                       # number of overall miss cycles
system.cpu.itb_walker_cache.overall_miss_rate::.switch_cpus.itb.walker     0.226866                       # miss rate for overall accesses
system.cpu.itb_walker_cache.overall_miss_rate::total     0.226866                       # miss rate for overall accesses
system.cpu.itb_walker_cache.overall_misses::.switch_cpus.itb.walker           76                       # number of overall misses
system.cpu.itb_walker_cache.overall_misses::total           76                       # number of overall misses
system.cpu.itb_walker_cache.overall_mshr_miss_latency::.switch_cpus.itb.walker      3363750                       # number of overall MSHR miss cycles
system.cpu.itb_walker_cache.overall_mshr_miss_latency::total      3363750                       # number of overall MSHR miss cycles
system.cpu.itb_walker_cache.overall_mshr_miss_rate::.switch_cpus.itb.walker     0.226866                       # mshr miss rate for overall accesses
system.cpu.itb_walker_cache.overall_mshr_miss_rate::total     0.226866                       # mshr miss rate for overall accesses
system.cpu.itb_walker_cache.overall_mshr_misses::.switch_cpus.itb.walker           76                       # number of overall MSHR misses
system.cpu.itb_walker_cache.overall_mshr_misses::total           76                       # number of overall MSHR misses
system.cpu.itb_walker_cache.replacements           60                       # number of replacements
system.cpu.itb_walker_cache.tags.age_task_id_blocks_1025::4           16                       # Occupied blocks per task id
system.cpu.itb_walker_cache.tags.avg_refs     4.850000                       # Average number of references to valid blocks.
system.cpu.itb_walker_cache.tags.data_accesses          746                       # Number of data accesses
system.cpu.itb_walker_cache.tags.occ_blocks::.switch_cpus.itb.walker    13.699053                       # Average occupied blocks per requestor
system.cpu.itb_walker_cache.tags.occ_percent::.switch_cpus.itb.walker     0.856191                       # Average percentage of cache occupancy
system.cpu.itb_walker_cache.tags.occ_percent::total     0.856191                       # Average percentage of cache occupancy
system.cpu.itb_walker_cache.tags.occ_task_id_blocks::1025           16                       # Occupied blocks per task id
system.cpu.itb_walker_cache.tags.occ_task_id_percent::1025            1                       # Percentage of cache occupancy per task id
system.cpu.itb_walker_cache.tags.sampled_refs           60                       # Sample count of references to valid blocks.
system.cpu.itb_walker_cache.tags.tag_accesses          746                       # Number of tag accesses
system.cpu.itb_walker_cache.tags.tagsinuse    13.699053                       # Cycle average of tags in use
system.cpu.itb_walker_cache.tags.total_refs          291                       # Total number of references to valid blocks.
system.cpu.itb_walker_cache.tags.warmup_cycle 807268655317000                       # Cycle when the warmup percentage was hit.
system.cpu.itb_walker_cache.tlbTagged.rdAccesses            0                       # TLB accesses on read requests
system.cpu.itb_walker_cache.tlbTagged.rdMisses            0                       # TLB misses on read requests
system.cpu.itb_walker_cache.tlbTagged.wrAccesses            0                       # TLB accesses on write requests
system.cpu.itb_walker_cache.tlbTagged.wrMisses            0                       # TLB misses on write requests
system.cpu.kern.inst.arm                            0                       # number of arm instructions executed
system.cpu.kern.inst.quiesce                        0                       # number of quiesce instructions executed
system.cpu.l2cache.CleanEvict_mshr_miss_rate::.writebacks          inf                       # mshr miss rate for CleanEvict accesses
system.cpu.l2cache.CleanEvict_mshr_miss_rate::total          inf                       # mshr miss rate for CleanEvict accesses
system.cpu.l2cache.CleanEvict_mshr_misses::.writebacks         1157                       # number of CleanEvict MSHR misses
system.cpu.l2cache.CleanEvict_mshr_misses::total         1157                       # number of CleanEvict MSHR misses
system.cpu.l2cache.DataMeta::0                      0                       # Distribution of access
system.cpu.l2cache.DataMeta::1                      0                       # Distribution of access
system.cpu.l2cache.DataMeta::2                      0                       # Distribution of access
system.cpu.l2cache.DataMeta::3                      0                       # Distribution of access
system.cpu.l2cache.HardPFReq_avg_mshr_miss_latency::.cpu.l2cache.prefetcher 104747.734361                       # average HardPFReq mshr miss latency
system.cpu.l2cache.HardPFReq_avg_mshr_miss_latency::total 104747.734361                       # average HardPFReq mshr miss latency
system.cpu.l2cache.HardPFReq_mshr_miss_latency::.cpu.l2cache.prefetcher 317344050263                       # number of HardPFReq MSHR miss cycles
system.cpu.l2cache.HardPFReq_mshr_miss_latency::total 317344050263                       # number of HardPFReq MSHR miss cycles
system.cpu.l2cache.HardPFReq_mshr_miss_rate::.cpu.l2cache.prefetcher          inf                       # mshr miss rate for HardPFReq accesses
system.cpu.l2cache.HardPFReq_mshr_miss_rate::total          inf                       # mshr miss rate for HardPFReq accesses
system.cpu.l2cache.HardPFReq_mshr_misses::.cpu.l2cache.prefetcher      3029603                       # number of HardPFReq MSHR misses
system.cpu.l2cache.HardPFReq_mshr_misses::total      3029603                       # number of HardPFReq MSHR misses
system.cpu.l2cache.ReadCleanReq_accesses::.switch_cpus.inst        11239                       # number of ReadCleanReq accesses(hits+misses)
system.cpu.l2cache.ReadCleanReq_accesses::total        11239                       # number of ReadCleanReq accesses(hits+misses)
system.cpu.l2cache.ReadCleanReq_avg_miss_latency::.switch_cpus.inst 106484.645838                       # average ReadCleanReq miss latency
system.cpu.l2cache.ReadCleanReq_avg_miss_latency::total 106484.645838                       # average ReadCleanReq miss latency
system.cpu.l2cache.ReadCleanReq_avg_mshr_miss_latency::.switch_cpus.inst 107895.837885                       # average ReadCleanReq mshr miss latency
system.cpu.l2cache.ReadCleanReq_avg_mshr_miss_latency::total 107895.837885                       # average ReadCleanReq mshr miss latency
system.cpu.l2cache.ReadCleanReq_hits::.switch_cpus.inst         6566                       # number of ReadCleanReq hits
system.cpu.l2cache.ReadCleanReq_hits::total         6566                       # number of ReadCleanReq hits
system.cpu.l2cache.ReadCleanReq_miss_latency::.switch_cpus.inst    497602750                       # number of ReadCleanReq miss cycles
system.cpu.l2cache.ReadCleanReq_miss_latency::total    497602750                       # number of ReadCleanReq miss cycles
system.cpu.l2cache.ReadCleanReq_miss_rate::.switch_cpus.inst     0.415784                       # miss rate for ReadCleanReq accesses
system.cpu.l2cache.ReadCleanReq_miss_rate::total     0.415784                       # miss rate for ReadCleanReq accesses
system.cpu.l2cache.ReadCleanReq_misses::.switch_cpus.inst         4673                       # number of ReadCleanReq misses
system.cpu.l2cache.ReadCleanReq_misses::total         4673                       # number of ReadCleanReq misses
system.cpu.l2cache.ReadCleanReq_mshr_hits::.switch_cpus.inst           96                       # number of ReadCleanReq MSHR hits
system.cpu.l2cache.ReadCleanReq_mshr_hits::total           96                       # number of ReadCleanReq MSHR hits
system.cpu.l2cache.ReadCleanReq_mshr_miss_latency::.switch_cpus.inst    493839250                       # number of ReadCleanReq MSHR miss cycles
system.cpu.l2cache.ReadCleanReq_mshr_miss_latency::total    493839250                       # number of ReadCleanReq MSHR miss cycles
system.cpu.l2cache.ReadCleanReq_mshr_miss_rate::.switch_cpus.inst     0.407243                       # mshr miss rate for ReadCleanReq accesses
system.cpu.l2cache.ReadCleanReq_mshr_miss_rate::total     0.407243                       # mshr miss rate for ReadCleanReq accesses
system.cpu.l2cache.ReadCleanReq_mshr_misses::.switch_cpus.inst         4577                       # number of ReadCleanReq MSHR misses
system.cpu.l2cache.ReadCleanReq_mshr_misses::total         4577                       # number of ReadCleanReq MSHR misses
system.cpu.l2cache.ReadExReq_accesses::.switch_cpus.data       767413                       # number of ReadExReq accesses(hits+misses)
system.cpu.l2cache.ReadExReq_accesses::total       767413                       # number of ReadExReq accesses(hits+misses)
system.cpu.l2cache.ReadExReq_avg_miss_latency::.switch_cpus.data 100381.651771                       # average ReadExReq miss latency
system.cpu.l2cache.ReadExReq_avg_miss_latency::total 100381.651771                       # average ReadExReq miss latency
system.cpu.l2cache.ReadExReq_avg_mshr_miss_latency::.switch_cpus.data 122378.155709                       # average ReadExReq mshr miss latency
system.cpu.l2cache.ReadExReq_avg_mshr_miss_latency::total 122378.155709                       # average ReadExReq mshr miss latency
system.cpu.l2cache.ReadExReq_hits::.switch_cpus.data       691888                       # number of ReadExReq hits
system.cpu.l2cache.ReadExReq_hits::total       691888                       # number of ReadExReq hits
system.cpu.l2cache.ReadExReq_miss_latency::.switch_cpus.data   7581324250                       # number of ReadExReq miss cycles
system.cpu.l2cache.ReadExReq_miss_latency::total   7581324250                       # number of ReadExReq miss cycles
system.cpu.l2cache.ReadExReq_miss_rate::.switch_cpus.data     0.098415                       # miss rate for ReadExReq accesses
system.cpu.l2cache.ReadExReq_miss_rate::total     0.098415                       # miss rate for ReadExReq accesses
system.cpu.l2cache.ReadExReq_misses::.switch_cpus.data        75525                       # number of ReadExReq misses
system.cpu.l2cache.ReadExReq_misses::total        75525                       # number of ReadExReq misses
system.cpu.l2cache.ReadExReq_mshr_hits::.switch_cpus.data        20268                       # number of ReadExReq MSHR hits
system.cpu.l2cache.ReadExReq_mshr_hits::total        20268                       # number of ReadExReq MSHR hits
system.cpu.l2cache.ReadExReq_mshr_miss_latency::.switch_cpus.data   6762249750                       # number of ReadExReq MSHR miss cycles
system.cpu.l2cache.ReadExReq_mshr_miss_latency::total   6762249750                       # number of ReadExReq MSHR miss cycles
system.cpu.l2cache.ReadExReq_mshr_miss_rate::.switch_cpus.data     0.072004                       # mshr miss rate for ReadExReq accesses
system.cpu.l2cache.ReadExReq_mshr_miss_rate::total     0.072004                       # mshr miss rate for ReadExReq accesses
system.cpu.l2cache.ReadExReq_mshr_misses::.switch_cpus.data        55257                       # number of ReadExReq MSHR misses
system.cpu.l2cache.ReadExReq_mshr_misses::total        55257                       # number of ReadExReq MSHR misses
system.cpu.l2cache.ReadSharedReq_accesses::.cpu.dcache.prefetcher      3106918                       # number of ReadSharedReq accesses(hits+misses)
system.cpu.l2cache.ReadSharedReq_accesses::.switch_cpus.dtb.walker         4867                       # number of ReadSharedReq accesses(hits+misses)
system.cpu.l2cache.ReadSharedReq_accesses::.switch_cpus.itb.walker           76                       # number of ReadSharedReq accesses(hits+misses)
system.cpu.l2cache.ReadSharedReq_accesses::.switch_cpus.data       176607                       # number of ReadSharedReq accesses(hits+misses)
system.cpu.l2cache.ReadSharedReq_accesses::total      3288468                       # number of ReadSharedReq accesses(hits+misses)
system.cpu.l2cache.ReadSharedReq_avg_miss_latency::.cpu.dcache.prefetcher 93178.928595                       # average ReadSharedReq miss latency
system.cpu.l2cache.ReadSharedReq_avg_miss_latency::.switch_cpus.dtb.walker 77357.178969                       # average ReadSharedReq miss latency
system.cpu.l2cache.ReadSharedReq_avg_miss_latency::.switch_cpus.itb.walker 81217.948718                       # average ReadSharedReq miss latency
system.cpu.l2cache.ReadSharedReq_avg_miss_latency::.switch_cpus.data 61440.950266                       # average ReadSharedReq miss latency
system.cpu.l2cache.ReadSharedReq_avg_miss_latency::total 92349.255673                       # average ReadSharedReq miss latency
system.cpu.l2cache.ReadSharedReq_avg_mshr_miss_latency::.cpu.dcache.prefetcher 119122.394307                       # average ReadSharedReq mshr miss latency
system.cpu.l2cache.ReadSharedReq_avg_mshr_miss_latency::.switch_cpus.dtb.walker 77357.178969                       # average ReadSharedReq mshr miss latency
system.cpu.l2cache.ReadSharedReq_avg_mshr_miss_latency::.switch_cpus.itb.walker 81217.948718                       # average ReadSharedReq mshr miss latency
system.cpu.l2cache.ReadSharedReq_avg_mshr_miss_latency::.switch_cpus.data 119971.324206                       # average ReadSharedReq mshr miss latency
system.cpu.l2cache.ReadSharedReq_avg_mshr_miss_latency::total 119101.492431                       # average ReadSharedReq mshr miss latency
system.cpu.l2cache.ReadSharedReq_hits::.cpu.dcache.prefetcher       773175                       # number of ReadSharedReq hits
system.cpu.l2cache.ReadSharedReq_hits::.switch_cpus.dtb.walker         3878                       # number of ReadSharedReq hits
system.cpu.l2cache.ReadSharedReq_hits::.switch_cpus.itb.walker           37                       # number of ReadSharedReq hits
system.cpu.l2cache.ReadSharedReq_hits::.switch_cpus.data       114456                       # number of ReadSharedReq hits
system.cpu.l2cache.ReadSharedReq_hits::total       891546                       # number of ReadSharedReq hits
system.cpu.l2cache.ReadSharedReq_miss_latency::.cpu.dcache.prefetcher 217455672357                       # number of ReadSharedReq miss cycles
system.cpu.l2cache.ReadSharedReq_miss_latency::.switch_cpus.dtb.walker     76506250                       # number of ReadSharedReq miss cycles
system.cpu.l2cache.ReadSharedReq_miss_latency::.switch_cpus.itb.walker      3167500                       # number of ReadSharedReq miss cycles
system.cpu.l2cache.ReadSharedReq_miss_latency::.switch_cpus.data   3818616500                       # number of ReadSharedReq miss cycles
system.cpu.l2cache.ReadSharedReq_miss_latency::total 221353962607                       # number of ReadSharedReq miss cycles
system.cpu.l2cache.ReadSharedReq_miss_rate::.cpu.dcache.prefetcher     0.751144                       # miss rate for ReadSharedReq accesses
system.cpu.l2cache.ReadSharedReq_miss_rate::.switch_cpus.dtb.walker     0.203205                       # miss rate for ReadSharedReq accesses
system.cpu.l2cache.ReadSharedReq_miss_rate::.switch_cpus.itb.walker     0.513158                       # miss rate for ReadSharedReq accesses
system.cpu.l2cache.ReadSharedReq_miss_rate::.switch_cpus.data     0.351917                       # miss rate for ReadSharedReq accesses
system.cpu.l2cache.ReadSharedReq_miss_rate::total     0.728887                       # miss rate for ReadSharedReq accesses
system.cpu.l2cache.ReadSharedReq_misses::.cpu.dcache.prefetcher      2333743                       # number of ReadSharedReq misses
system.cpu.l2cache.ReadSharedReq_misses::.switch_cpus.dtb.walker          989                       # number of ReadSharedReq misses
system.cpu.l2cache.ReadSharedReq_misses::.switch_cpus.itb.walker           39                       # number of ReadSharedReq misses
system.cpu.l2cache.ReadSharedReq_misses::.switch_cpus.data        62151                       # number of ReadSharedReq misses
system.cpu.l2cache.ReadSharedReq_misses::total      2396922                       # number of ReadSharedReq misses
system.cpu.l2cache.ReadSharedReq_mshr_hits::.cpu.dcache.prefetcher      1373023                       # number of ReadSharedReq MSHR hits
system.cpu.l2cache.ReadSharedReq_mshr_hits::.switch_cpus.data        36075                       # number of ReadSharedReq MSHR hits
system.cpu.l2cache.ReadSharedReq_mshr_hits::total      1409098                       # number of ReadSharedReq MSHR hits
system.cpu.l2cache.ReadSharedReq_mshr_miss_latency::.cpu.dcache.prefetcher 114443266659                       # number of ReadSharedReq MSHR miss cycles
system.cpu.l2cache.ReadSharedReq_mshr_miss_latency::.switch_cpus.dtb.walker     76506250                       # number of ReadSharedReq MSHR miss cycles
system.cpu.l2cache.ReadSharedReq_mshr_miss_latency::.switch_cpus.itb.walker      3167500                       # number of ReadSharedReq MSHR miss cycles
system.cpu.l2cache.ReadSharedReq_mshr_miss_latency::.switch_cpus.data   3128372250                       # number of ReadSharedReq MSHR miss cycles
system.cpu.l2cache.ReadSharedReq_mshr_miss_latency::total 117651312659                       # number of ReadSharedReq MSHR miss cycles
system.cpu.l2cache.ReadSharedReq_mshr_miss_rate::.cpu.dcache.prefetcher     0.309220                       # mshr miss rate for ReadSharedReq accesses
system.cpu.l2cache.ReadSharedReq_mshr_miss_rate::.switch_cpus.dtb.walker     0.203205                       # mshr miss rate for ReadSharedReq accesses
system.cpu.l2cache.ReadSharedReq_mshr_miss_rate::.switch_cpus.itb.walker     0.513158                       # mshr miss rate for ReadSharedReq accesses
system.cpu.l2cache.ReadSharedReq_mshr_miss_rate::.switch_cpus.data     0.147650                       # mshr miss rate for ReadSharedReq accesses
system.cpu.l2cache.ReadSharedReq_mshr_miss_rate::total     0.300390                       # mshr miss rate for ReadSharedReq accesses
system.cpu.l2cache.ReadSharedReq_mshr_misses::.cpu.dcache.prefetcher       960720                       # number of ReadSharedReq MSHR misses
system.cpu.l2cache.ReadSharedReq_mshr_misses::.switch_cpus.dtb.walker          989                       # number of ReadSharedReq MSHR misses
system.cpu.l2cache.ReadSharedReq_mshr_misses::.switch_cpus.itb.walker           39                       # number of ReadSharedReq MSHR misses
system.cpu.l2cache.ReadSharedReq_mshr_misses::.switch_cpus.data        26076                       # number of ReadSharedReq MSHR misses
system.cpu.l2cache.ReadSharedReq_mshr_misses::total       987824                       # number of ReadSharedReq MSHR misses
system.cpu.l2cache.UpgradeReq_accesses::.switch_cpus.data         1131                       # number of UpgradeReq accesses(hits+misses)
system.cpu.l2cache.UpgradeReq_accesses::total         1131                       # number of UpgradeReq accesses(hits+misses)
system.cpu.l2cache.UpgradeReq_avg_miss_latency::.switch_cpus.data 13709.090909                       # average UpgradeReq miss latency
system.cpu.l2cache.UpgradeReq_avg_miss_latency::total 13709.090909                       # average UpgradeReq miss latency
system.cpu.l2cache.UpgradeReq_avg_mshr_miss_latency::.switch_cpus.data 15745.454545                       # average UpgradeReq mshr miss latency
system.cpu.l2cache.UpgradeReq_avg_mshr_miss_latency::total 15745.454545                       # average UpgradeReq mshr miss latency
system.cpu.l2cache.UpgradeReq_hits::.switch_cpus.data         1076                       # number of UpgradeReq hits
system.cpu.l2cache.UpgradeReq_hits::total         1076                       # number of UpgradeReq hits
system.cpu.l2cache.UpgradeReq_miss_latency::.switch_cpus.data       754000                       # number of UpgradeReq miss cycles
system.cpu.l2cache.UpgradeReq_miss_latency::total       754000                       # number of UpgradeReq miss cycles
system.cpu.l2cache.UpgradeReq_miss_rate::.switch_cpus.data     0.048630                       # miss rate for UpgradeReq accesses
system.cpu.l2cache.UpgradeReq_miss_rate::total     0.048630                       # miss rate for UpgradeReq accesses
system.cpu.l2cache.UpgradeReq_misses::.switch_cpus.data           55                       # number of UpgradeReq misses
system.cpu.l2cache.UpgradeReq_misses::total           55                       # number of UpgradeReq misses
system.cpu.l2cache.UpgradeReq_mshr_miss_latency::.switch_cpus.data       866000                       # number of UpgradeReq MSHR miss cycles
system.cpu.l2cache.UpgradeReq_mshr_miss_latency::total       866000                       # number of UpgradeReq MSHR miss cycles
system.cpu.l2cache.UpgradeReq_mshr_miss_rate::.switch_cpus.data     0.048630                       # mshr miss rate for UpgradeReq accesses
system.cpu.l2cache.UpgradeReq_mshr_miss_rate::total     0.048630                       # mshr miss rate for UpgradeReq accesses
system.cpu.l2cache.UpgradeReq_mshr_misses::.switch_cpus.data           55                       # number of UpgradeReq MSHR misses
system.cpu.l2cache.UpgradeReq_mshr_misses::total           55                       # number of UpgradeReq MSHR misses
system.cpu.l2cache.WriteReq_mshr_uncacheable::.switch_cpus.data           96                       # number of WriteReq MSHR uncacheable
system.cpu.l2cache.WriteReq_mshr_uncacheable::total           96                       # number of WriteReq MSHR uncacheable
system.cpu.l2cache.WritebackClean_accesses::.writebacks        10727                       # number of WritebackClean accesses(hits+misses)
system.cpu.l2cache.WritebackClean_accesses::total        10727                       # number of WritebackClean accesses(hits+misses)
system.cpu.l2cache.WritebackClean_hits::.writebacks        10727                       # number of WritebackClean hits
system.cpu.l2cache.WritebackClean_hits::total        10727                       # number of WritebackClean hits
system.cpu.l2cache.WritebackDirty_accesses::.writebacks      3218732                       # number of WritebackDirty accesses(hits+misses)
system.cpu.l2cache.WritebackDirty_accesses::total      3218732                       # number of WritebackDirty accesses(hits+misses)
system.cpu.l2cache.WritebackDirty_hits::.writebacks      3218732                       # number of WritebackDirty hits
system.cpu.l2cache.WritebackDirty_hits::total      3218732                       # number of WritebackDirty hits
system.cpu.l2cache.avg_blocked_cycles::no_mshrs    55.300000                       # average number of cycles each access was blocked
system.cpu.l2cache.avg_blocked_cycles::no_targets          nan                       # average number of cycles each access was blocked
system.cpu.l2cache.blocked::no_mshrs               10                       # number of cycles access was blocked
system.cpu.l2cache.blocked::no_targets              0                       # number of cycles access was blocked
system.cpu.l2cache.blocked_cycles::no_mshrs          553                       # number of cycles access was blocked
system.cpu.l2cache.blocked_cycles::no_targets            0                       # number of cycles access was blocked
system.cpu.l2cache.demand_accesses::.cpu.dcache.prefetcher      3106918                       # number of demand (read+write) accesses
system.cpu.l2cache.demand_accesses::.switch_cpus.dtb.walker         4867                       # number of demand (read+write) accesses
system.cpu.l2cache.demand_accesses::.switch_cpus.itb.walker           76                       # number of demand (read+write) accesses
system.cpu.l2cache.demand_accesses::.switch_cpus.inst        11239                       # number of demand (read+write) accesses
system.cpu.l2cache.demand_accesses::.switch_cpus.data       944020                       # number of demand (read+write) accesses
system.cpu.l2cache.demand_accesses::total      4067120                       # number of demand (read+write) accesses
system.cpu.l2cache.demand_avg_miss_latency::.cpu.dcache.prefetcher 93178.928595                       # average overall miss latency
system.cpu.l2cache.demand_avg_miss_latency::.switch_cpus.dtb.walker 77357.178969                       # average overall miss latency
system.cpu.l2cache.demand_avg_miss_latency::.switch_cpus.itb.walker 81217.948718                       # average overall miss latency
system.cpu.l2cache.demand_avg_miss_latency::.switch_cpus.inst 106484.645838                       # average overall miss latency
system.cpu.l2cache.demand_avg_miss_latency::.switch_cpus.data 82802.672579                       # average overall miss latency
system.cpu.l2cache.demand_avg_miss_latency::total 92620.821602                       # average overall miss latency
system.cpu.l2cache.demand_avg_mshr_miss_latency::.cpu.dcache.prefetcher 119122.394307                       # average overall mshr miss latency
system.cpu.l2cache.demand_avg_mshr_miss_latency::.switch_cpus.dtb.walker 77357.178969                       # average overall mshr miss latency
system.cpu.l2cache.demand_avg_mshr_miss_latency::.switch_cpus.itb.walker 81217.948718                       # average overall mshr miss latency
system.cpu.l2cache.demand_avg_mshr_miss_latency::.switch_cpus.inst 107895.837885                       # average overall mshr miss latency
system.cpu.l2cache.demand_avg_mshr_miss_latency::.switch_cpus.data 121606.506584                       # average overall mshr miss latency
system.cpu.l2cache.demand_avg_mshr_miss_latency::total 119225.359477                       # average overall mshr miss latency
system.cpu.l2cache.demand_hits::.cpu.dcache.prefetcher       773175                       # number of demand (read+write) hits
system.cpu.l2cache.demand_hits::.switch_cpus.dtb.walker         3878                       # number of demand (read+write) hits
system.cpu.l2cache.demand_hits::.switch_cpus.itb.walker           37                       # number of demand (read+write) hits
system.cpu.l2cache.demand_hits::.switch_cpus.inst         6566                       # number of demand (read+write) hits
[...]
system.switch_cpus.iq.fu_full::MemRead              0                       # attempts to use FU when none available
system.switch_cpus.iq.fu_full::MemWrite             0                       # attempts to use FU when none available
system.switch_cpus.iq.fu_full::FloatMemRead            0                       # attempts to use FU when none available
system.switch_cpus.iq.fu_full::FloatMemWrite            0                       # attempts to use FU when none available
system.switch_cpus.iq.fu_full::IprAccess            0                       # attempts to use FU when none available
system.switch_cpus.iq.fu_full::InstPrefetch            0                       # attempts to use FU when none available
system.switch_cpus.iq.int_alu_accesses         111513                       # Number of integer alu accesses
system.switch_cpus.iq.int_inst_queue_reads       313609                       # Number of integer instruction queue reads
system.switch_cpus.iq.int_inst_queue_wakeup_accesses       111514                       # Number of integer instruction queue wakeup accesses
system.switch_cpus.iq.int_inst_queue_writes       111513                       # Number of integer instruction queue writes
system.switch_cpus.iq.iqInstsAdded             111513                       # Number of instructions added to the IQ (excludes non-spec)
system.switch_cpus.iq.iqInstsIssued            111513                       # Number of instructions issued
system.switch_cpus.iq.issued_per_cycle::samples        90582                       # Number of insts issued each cycle
system.switch_cpus.iq.issued_per_cycle::mean     1.231072                       # Number of insts issued each cycle
system.switch_cpus.iq.issued_per_cycle::stdev     1.593802                       # Number of insts issued each cycle
system.switch_cpus.iq.issued_per_cycle::underflows            0      0.00%      0.00% # Number of insts issued each cycle
system.switch_cpus.iq.issued_per_cycle::0        48616     53.67%     53.67% # Number of insts issued each cycle
system.switch_cpus.iq.issued_per_cycle::1        11090     12.24%     65.91% # Number of insts issued each cycle
system.switch_cpus.iq.issued_per_cycle::2         6684      7.38%     73.29% # Number of insts issued each cycle
system.switch_cpus.iq.issued_per_cycle::3        14097     15.56%     88.86% # Number of insts issued each cycle
system.switch_cpus.iq.issued_per_cycle::4         6561      7.24%     96.10% # Number of insts issued each cycle
system.switch_cpus.iq.issued_per_cycle::5         2684      2.96%     99.06% # Number of insts issued each cycle
system.switch_cpus.iq.issued_per_cycle::6          850      0.94%    100.00% # Number of insts issued each cycle
system.switch_cpus.iq.issued_per_cycle::7            0      0.00%    100.00% # Number of insts issued each cycle
system.switch_cpus.iq.issued_per_cycle::8            0      0.00%    100.00% # Number of insts issued each cycle
system.switch_cpus.iq.issued_per_cycle::overflows            0      0.00%    100.00% # Number of insts issued each cycle
system.switch_cpus.iq.issued_per_cycle::min_value            0                       # Number of insts issued each cycle
system.switch_cpus.iq.issued_per_cycle::max_value            6                       # Number of insts issued each cycle
system.switch_cpus.iq.issued_per_cycle::total        90582                       # Number of insts issued each cycle
system.switch_cpus.iq.rate                   1.231072                       # Inst issue rate
system.switch_cpus.iq.vec_alu_accesses              0                       # Number of vector alu accesses
system.switch_cpus.iq.vec_inst_queue_reads            0                       # Number of vector instruction queue reads
system.switch_cpus.iq.vec_inst_queue_wakeup_accesses            0                       # Number of vector instruction queue wakeup accesses
system.switch_cpus.iq.vec_inst_queue_writes            0                       # Number of vector instruction queue writes
system.switch_cpus.itb.rdAccesses                   0                       # TLB accesses on read requests
system.switch_cpus.itb.rdMisses                     0                       # TLB misses on read requests
system.switch_cpus.itb.wrAccesses                5975                       # TLB accesses on write requests
system.switch_cpus.itb.wrMisses                     0                       # TLB misses on write requests
system.switch_cpus.kern.inst.arm                    0                       # number of arm instructions executed
system.switch_cpus.kern.inst.quiesce                0                       # number of quiesce instructions executed
system.switch_cpus.memDep0.conflictingLoads            0                       # Number of conflicting loads.
system.switch_cpus.memDep0.conflictingStores            0                       # Number of conflicting stores.
system.switch_cpus.memDep0.insertedLoads        11948                       # Number of loads inserted to the mem dependence unit.
system.switch_cpus.memDep0.insertedStores        17922                       # Number of stores inserted to the mem dependence unit.
system.switch_cpus.misc_regfile_reads           57749                       # number of misc regfile reads
system.switch_cpus.numCycles                    90582                       # number of cpu cycles simulated
system.switch_cpus.numWorkItemsCompleted            0                       # number of work items this cpu completed
system.switch_cpus.numWorkItemsStarted              0                       # number of work items this cpu started
system.switch_cpus.rename.BlockCycles            6210                       # Number of cycles rename is blocking
system.switch_cpus.rename.CommittedMaps        119479                       # Number of HB maps that are committed
system.switch_cpus.rename.IdleCycles             9293                       # Number of cycles rename is idle
system.switch_cpus.rename.RenameLookups        278795                       # Number of register rename lookups that rename has made
system.switch_cpus.rename.RenamedInsts         111518                       # Number of instructions processed by rename
system.switch_cpus.rename.RenamedOperands       119484                       # Number of destination operands rename has renamed
system.switch_cpus.rename.RunCycles              9293                       # Number of cycles rename is running
system.switch_cpus.rename.SQFullEvents          61904                       # Number of times rename has blocked due to SQ full
system.switch_cpus.rename.UnblockCycles         65786                       # Number of cycles rename is unblocking
system.switch_cpus.rename.int_rename_lookups       145375                       # Number of integer rename lookups
system.switch_cpus.rename.serializeStallCycles            0                       # count of cycles rename stalled for serializing inst
system.switch_cpus.rename.serializingInsts            0                       # count of serializing insts renamed
system.switch_cpus.rename.skidInsts             78325                       # count of insts added to the skid buffer
system.switch_cpus.rename.tempSerializingInsts            0                       # count of temporary serializing insts renamed
system.switch_cpus.rob.rob_reads               202100                       # The number of ROB reads
system.switch_cpus.rob.rob_writes              223031                       # The number of ROB writes
system.tol3bus.pkt_count_system.cpu.l2cache.mem_side::system.l3.cpu_side         2238                       # Packet count per connected master and slave (bytes)
system.tol3bus.pkt_size_system.cpu.l2cache.mem_side::system.l3.cpu_side        95488                       # Cumulative packet size per connected master and slave (bytes)
system.tol3bus.reqLayer0.occupancy             746000                       # Layer occupancy (ticks)
system.tol3bus.reqLayer0.utilization              3.3                       # Layer utilization (%)
system.tol3bus.respLayer0.occupancy            717707                       # Layer occupancy (ticks)
system.tol3bus.respLayer0.utilization             3.2                       # Layer utilization (%)
system.tol3bus.snoopTraffic                     49728                       # Total snoop traffic (bytes)
system.tol3bus.snoop_fanout::samples             1678                       # Request fanout histogram
system.tol3bus.snoop_fanout::mean                   0                       # Request fanout histogram
system.tol3bus.snoop_fanout::stdev                  0                       # Request fanout histogram
system.tol3bus.snoop_fanout::underflows             0      0.00%      0.00% # Request fanout histogram
system.tol3bus.snoop_fanout::0                   1678    100.00%    100.00% # Request fanout histogram
system.tol3bus.snoop_fanout::1                      0      0.00%    100.00% # Request fanout histogram
system.tol3bus.snoop_fanout::overflows              0      0.00%    100.00% # Request fanout histogram
system.tol3bus.snoop_fanout::min_value              0                       # Request fanout histogram
system.tol3bus.snoop_fanout::max_value              0                       # Request fanout histogram
system.tol3bus.snoop_fanout::total               1678                       # Request fanout histogram
system.tol3bus.snoop_filter.hit_multi_requests            0                       # Number of requests hitting in the snoop filter with multiple (>1) holders of the requested data.
system.tol3bus.snoop_filter.hit_multi_snoops            0                       # Number of snoops hitting in the snoop filter with multiple (>1) holders of the requested data.
system.tol3bus.snoop_filter.hit_single_requests          746                       # Number of requests hitting in the snoop filter with a single holder of the requested data.
system.tol3bus.snoop_filter.hit_single_snoops            0                       # Number of snoops hitting in the snoop filter with a single holder of the requested data.
system.tol3bus.snoop_filter.tot_requests         1492                       # Total number of requests made to the snoop filter.
system.tol3bus.snoop_filter.tot_snoops              0                       # Total number of snoops made to the snoop filter.
system.tol3bus.snoops                             932                       # Total snoops (count)
system.tol3bus.trans_dist::ReadResp               728                       # Transaction distribution
system.tol3bus.trans_dist::WritebackDirty         1523                       # Transaction distribution
system.tol3bus.trans_dist::CleanEvict             155                       # Transaction distribution
system.tol3bus.trans_dist::ReadExReq               18                       # Transaction distribution
system.tol3bus.trans_dist::ReadExResp              18                       # Transaction distribution
system.tol3bus.trans_dist::ReadSharedReq          728                       # Transaction distribution
system.bridge.pwrStateResidencyTicks::UNDEFINED     22645750                       # Cumulative time (in ticks) in various power states
system.voltage_domain.voltage                       1                       # Voltage in Volts
system.membus.pwrStateResidencyTicks::UNDEFINED     22645750                       # Cumulative time (in ticks) in various power states
system.membus.badaddr_responder.pwrStateResidencyTicks::UNDEFINED     22645750                       # Cumulative time (in ticks) in various power states
system.apicbridge.pwrStateResidencyTicks::UNDEFINED     22645750                       # Cumulative time (in ticks) in various power states
system.tol3bus.pwrStateResidencyTicks::UNDEFINED     22645750                       # Cumulative time (in ticks) in various power states
system.switch_cpus.pwrStateResidencyTicks::OFF     22645750                       # Cumulative time (in ticks) in various power states
system.switch_cpus.dtb.walker.pwrStateResidencyTicks::UNDEFINED     22645750                       # Cumulative time (in ticks) in various power states
system.switch_cpus.itb.walker.pwrStateResidencyTicks::UNDEFINED     22645750                       # Cumulative time (in ticks) in various power states
system.clk_domain.clock                          1000                       # Clock period in ticks
system.pc.fake_com_4.pwrStateResidencyTicks::UNDEFINED     22645750                       # Cumulative time (in ticks) in various power states
system.pc.fake_com_2.pwrStateResidencyTicks::UNDEFINED     22645750                       # Cumulative time (in ticks) in various power states
system.pc.fake_com_3.pwrStateResidencyTicks::UNDEFINED     22645750                       # Cumulative time (in ticks) in various power states
system.pc.south_bridge.io_apic.pwrStateResidencyTicks::UNDEFINED     22645750                       # Cumulative time (in ticks) in various power states
system.pc.south_bridge.pic1.pwrStateResidencyTicks::UNDEFINED     22645750                       # Cumulative time (in ticks) in various power states
system.pc.south_bridge.pic2.pwrStateResidencyTicks::UNDEFINED     22645750                       # Cumulative time (in ticks) in various power states
system.pc.south_bridge.dma1.pwrStateResidencyTicks::UNDEFINED     22645750                       # Cumulative time (in ticks) in various power states
system.pc.south_bridge.speaker.pwrStateResidencyTicks::UNDEFINED     22645750                       # Cumulative time (in ticks) in various power states
system.pc.south_bridge.keyboard.pwrStateResidencyTicks::UNDEFINED     22645750                       # Cumulative time (in ticks) in various power states
system.pc.south_bridge.ide.pwrStateResidencyTicks::UNDEFINED     22645750                       # Cumulative time (in ticks) in various power states
system.pc.south_bridge.pit.pwrStateResidencyTicks::UNDEFINED     22645750                       # Cumulative time (in ticks) in various power states
system.pc.south_bridge.cmos.pwrStateResidencyTicks::UNDEFINED     22645750                       # Cumulative time (in ticks) in various power states
system.pc.i_dont_exist2.pwrStateResidencyTicks::UNDEFINED     22645750                       # Cumulative time (in ticks) in various power states
system.pc.i_dont_exist1.pwrStateResidencyTicks::UNDEFINED     22645750                       # Cumulative time (in ticks) in various power states
system.pc.com_1.pwrStateResidencyTicks::UNDEFINED     22645750                       # Cumulative time (in ticks) in various power states
system.pc.fake_floppy.pwrStateResidencyTicks::UNDEFINED     22645750                       # Cumulative time (in ticks) in various power states
system.pc.behind_pci.pwrStateResidencyTicks::UNDEFINED     22645750                       # Cumulative time (in ticks) in various power states
system.pc.pci_host.pwrStateResidencyTicks::UNDEFINED     22645750                       # Cumulative time (in ticks) in various power states
system.cpu_clk_domain.clock                       250                       # Clock period in ticks
system.iocache.pwrStateResidencyTicks::UNDEFINED     22645750                       # Cumulative time (in ticks) in various power states
system.iocache.tlbTagged.walker.pwrStateResidencyTicks::UNDEFINED     22645750                       # Cumulative time (in ticks) in various power states
system.iocache.tags.pwrStateResidencyTicks::UNDEFINED     22645750                       # Cumulative time (in ticks) in various power states
system.mem_ctrls0.pwrStateResidencyTicks::UNDEFINED     22645750                       # Cumulative time (in ticks) in various power states
system.mem_ctrls1.pwrStateResidencyTicks::UNDEFINED     22645750                       # Cumulative time (in ticks) in various power states
system.l3.pwrStateResidencyTicks::UNDEFINED     22645750                       # Cumulative time (in ticks) in various power states
system.l3.tlbTagged.walker.pwrStateResidencyTicks::UNDEFINED     22645750                       # Cumulative time (in ticks) in various power states
system.l3.tags.pwrStateResidencyTicks::UNDEFINED     22645750                       # Cumulative time (in ticks) in various power states
system.cpu_voltage_domain.voltage                   1                       # Voltage in Volts
system.iobus.pwrStateResidencyTicks::UNDEFINED     22645750                       # Cumulative time (in ticks) in various power states
system.cpu.pwrStateResidencyTicks::OFF       22645750                       # Cumulative time (in ticks) in various power states
system.cpu.icache.pwrStateResidencyTicks::UNDEFINED     22645750                       # Cumulative time (in ticks) in various power states
system.cpu.icache.tlbTagged.walker.pwrStateResidencyTicks::UNDEFINED     22645750                       # Cumulative time (in ticks) in various power states
system.cpu.icache.tags.pwrStateResidencyTicks::UNDEFINED     22645750                       # Cumulative time (in ticks) in various power states
system.cpu.dtb.walker.pwrStateResidencyTicks::UNDEFINED     22645750                       # Cumulative time (in ticks) in various power states
system.cpu.interrupts.pwrStateResidencyTicks::UNDEFINED     22645750                       # Cumulative time (in ticks) in various power states
system.cpu.interrupts.clk_domain.clock           4000                       # Clock period in ticks
system.cpu.itb_walker_cache.pwrStateResidencyTicks::UNDEFINED     22645750                       # Cumulative time (in ticks) in various power states
system.cpu.itb_walker_cache.tlbTagged.walker.pwrStateResidencyTicks::UNDEFINED     22645750                       # Cumulative time (in ticks) in various power states
system.cpu.itb_walker_cache.tags.pwrStateResidencyTicks::UNDEFINED     22645750                       # Cumulative time (in ticks) in various power states
system.cpu.itb.walker.pwrStateResidencyTicks::UNDEFINED     22645750                       # Cumulative time (in ticks) in various power states
system.cpu.dtb_walker_cache.pwrStateResidencyTicks::UNDEFINED     22645750                       # Cumulative time (in ticks) in various power states
system.cpu.dtb_walker_cache.tlbTagged.walker.pwrStateResidencyTicks::UNDEFINED     22645750                       # Cumulative time (in ticks) in various power states
system.cpu.dtb_walker_cache.tags.pwrStateResidencyTicks::UNDEFINED     22645750                       # Cumulative time (in ticks) in various power states
system.cpu.dcache.pwrStateResidencyTicks::UNDEFINED     22645750                       # Cumulative time (in ticks) in various power states
system.cpu.dcache.tlbTagged.walker.pwrStateResidencyTicks::UNDEFINED     22645750                       # Cumulative time (in ticks) in various power states
system.cpu.dcache.prefetcher.pwrStateResidencyTicks::UNDEFINED     22645750                       # Cumulative time (in ticks) in various power states
system.cpu.dcache.tags.pwrStateResidencyTicks::UNDEFINED     22645750                       # Cumulative time (in ticks) in various power states
system.cpu.l2cache.pwrStateResidencyTicks::UNDEFINED     22645750                       # Cumulative time (in ticks) in various power states
system.cpu.l2cache.tlbTagged.walker.pwrStateResidencyTicks::UNDEFINED     22645750                       # Cumulative time (in ticks) in various power states
system.cpu.l2cache.prefetcher.pwrStateResidencyTicks::UNDEFINED     22645750                       # Cumulative time (in ticks) in various power states
system.cpu.l2cache.tags.pwrStateResidencyTicks::UNDEFINED     22645750                       # Cumulative time (in ticks) in various power states
system.cpu.toL2Bus.pwrStateResidencyTicks::UNDEFINED     22645750                       # Cumulative time (in ticks) in various power states

---------- End Simulation Statistics   ----------
