
---------- Begin Simulation Statistics ----------
final_tick                               807358657117250                       # Number of ticks from beginning of simulation (restored from checkpoints and never reset)
host_inst_rate                                  26031                       # Simulator instruction rate (inst/s)
host_mem_usage                               17083320                       # Number of bytes of host memory used
host_op_rate                                    43300                       # Simulator op (including micro ops) rate (op/s)
host_seconds                                  3841.51                       # Real time elapsed on the host
host_tick_rate                               23428758                       # Simulator tick rate (ticks/s)
sim_freq                                 1000000000000                       # Frequency of simulated ticks
sim_insts                                   100000001                       # Number of instructions simulated
sim_ops                                     166336227                       # Number of ops (including micro ops) simulated
sim_seconds                                  0.090002                       # Number of seconds simulated
sim_ticks                                 90001898000                       # Number of ticks simulated
system.cpu.committedInsts                           0                       # Number of instructions committed
system.cpu.dcache.DataMeta::0                       0                       # Distribution of access
system.cpu.dcache.DataMeta::1                       0                       # Distribution of access
system.cpu.dcache.DataMeta::2                       0                       # Distribution of access
system.cpu.dcache.DataMeta::3                       0                       # Distribution of access
system.cpu.dcache.HardPFReq_avg_mshr_miss_latency::.cpu.dcache.prefetcher 53945.045092                       # average HardPFReq mshr miss latency
system.cpu.dcache.HardPFReq_avg_mshr_miss_latency::total 53945.045092                       # average HardPFReq mshr miss latency
system.cpu.dcache.HardPFReq_mshr_miss_latency::.cpu.dcache.prefetcher 168997742582                       # number of HardPFReq MSHR miss cycles
system.cpu.dcache.HardPFReq_mshr_miss_latency::total 168997742582                       # number of HardPFReq MSHR miss cycles
system.cpu.dcache.HardPFReq_mshr_miss_rate::.cpu.dcache.prefetcher          inf                       # mshr miss rate for HardPFReq accesses
system.cpu.dcache.HardPFReq_mshr_miss_rate::total          inf                       # mshr miss rate for HardPFReq accesses
system.cpu.dcache.HardPFReq_mshr_misses::.cpu.dcache.prefetcher      3132776                       # number of HardPFReq MSHR misses
system.cpu.dcache.HardPFReq_mshr_misses::total      3132776                       # number of HardPFReq MSHR misses
system.cpu.dcache.ReadReq_accesses::.switch_cpus.data     13468826                       # number of ReadReq accesses(hits+misses)
system.cpu.dcache.ReadReq_accesses::total     13468826                       # number of ReadReq accesses(hits+misses)
system.cpu.dcache.ReadReq_avg_miss_latency::.switch_cpus.data 56455.154702                       # average ReadReq miss latency
system.cpu.dcache.ReadReq_avg_miss_latency::total 56455.154702                       # average ReadReq miss latency
system.cpu.dcache.ReadReq_avg_mshr_miss_latency::.switch_cpus.data 28934.545125                       # average ReadReq mshr miss latency
system.cpu.dcache.ReadReq_avg_mshr_miss_latency::total 28934.545125                       # average ReadReq mshr miss latency
system.cpu.dcache.ReadReq_hits::.switch_cpus.data     11147033                       # number of ReadReq hits
system.cpu.dcache.ReadReq_hits::total        11147033                       # number of ReadReq hits
system.cpu.dcache.ReadReq_miss_latency::.switch_cpus.data 131077183000                       # number of ReadReq miss cycles
system.cpu.dcache.ReadReq_miss_latency::total 131077183000                       # number of ReadReq miss cycles
system.cpu.dcache.ReadReq_miss_rate::.switch_cpus.data     0.172383                       # miss rate for ReadReq accesses
system.cpu.dcache.ReadReq_miss_rate::total     0.172383                       # miss rate for ReadReq accesses
system.cpu.dcache.ReadReq_misses::.switch_cpus.data      2321793                       # number of ReadReq misses
system.cpu.dcache.ReadReq_misses::total       2321793                       # number of ReadReq misses
system.cpu.dcache.ReadReq_mshr_hits::.switch_cpus.data      2150614                       # number of ReadReq MSHR hits
system.cpu.dcache.ReadReq_mshr_hits::total      2150614                       # number of ReadReq MSHR hits
system.cpu.dcache.ReadReq_mshr_miss_latency::.switch_cpus.data   4952986500                       # number of ReadReq MSHR miss cycles
system.cpu.dcache.ReadReq_mshr_miss_latency::total   4952986500                       # number of ReadReq MSHR miss cycles
system.cpu.dcache.ReadReq_mshr_miss_rate::.switch_cpus.data     0.012709                       # mshr miss rate for ReadReq accesses
system.cpu.dcache.ReadReq_mshr_miss_rate::total     0.012709                       # mshr miss rate for ReadReq accesses
system.cpu.dcache.ReadReq_mshr_misses::.switch_cpus.data       171179                       # number of ReadReq MSHR misses
system.cpu.dcache.ReadReq_mshr_misses::total       171179                       # number of ReadReq MSHR misses
system.cpu.dcache.SoftPFReq_accesses::.switch_cpus.data           52                       # number of SoftPFReq accesses(hits+misses)
system.cpu.dcache.SoftPFReq_accesses::total           52                       # number of SoftPFReq accesses(hits+misses)
system.cpu.dcache.SoftPFReq_avg_mshr_miss_latency::.switch_cpus.data        93500                       # average SoftPFReq mshr miss latency
system.cpu.dcache.SoftPFReq_avg_mshr_miss_latency::total        93500                       # average SoftPFReq mshr miss latency
system.cpu.dcache.SoftPFReq_hits::.switch_cpus.data           11                       # number of SoftPFReq hits
system.cpu.dcache.SoftPFReq_hits::total            11                       # number of SoftPFReq hits
system.cpu.dcache.SoftPFReq_miss_rate::.switch_cpus.data     0.788462                       # miss rate for SoftPFReq accesses
system.cpu.dcache.SoftPFReq_miss_rate::total     0.788462                       # miss rate for SoftPFReq accesses
system.cpu.dcache.SoftPFReq_misses::.switch_cpus.data           41                       # number of SoftPFReq misses
system.cpu.dcache.SoftPFReq_misses::total           41                       # number of SoftPFReq misses
system.cpu.dcache.SoftPFReq_mshr_miss_latency::.switch_cpus.data      3833500                       # number of SoftPFReq MSHR miss cycles
system.cpu.dcache.SoftPFReq_mshr_miss_latency::total      3833500                       # number of SoftPFReq MSHR miss cycles
system.cpu.dcache.SoftPFReq_mshr_miss_rate::.switch_cpus.data     0.788462                       # mshr miss rate for SoftPFReq accesses
system.cpu.dcache.SoftPFReq_mshr_miss_rate::total     0.788462                       # mshr miss rate for SoftPFReq accesses
system.cpu.dcache.SoftPFReq_mshr_misses::.switch_cpus.data           41                       # number of SoftPFReq MSHR misses
system.cpu.dcache.SoftPFReq_mshr_misses::total           41                       # number of SoftPFReq MSHR misses
system.cpu.dcache.WriteReq_accesses::.switch_cpus.data     37964030                       # number of WriteReq accesses(hits+misses)
system.cpu.dcache.WriteReq_accesses::total     37964030                       # number of WriteReq accesses(hits+misses)
system.cpu.dcache.WriteReq_avg_miss_latency::.switch_cpus.data 39221.033306                       # average WriteReq miss latency
system.cpu.dcache.WriteReq_avg_miss_latency::total 39221.033306                       # average WriteReq miss latency
system.cpu.dcache.WriteReq_avg_mshr_miss_latency::.switch_cpus.data 13907.279169                       # average WriteReq mshr miss latency
system.cpu.dcache.WriteReq_avg_mshr_miss_latency::total 13907.279169                       # average WriteReq mshr miss latency
system.cpu.dcache.WriteReq_hits::.switch_cpus.data     36712049                       # number of WriteReq hits
system.cpu.dcache.WriteReq_hits::total       36712049                       # number of WriteReq hits
system.cpu.dcache.WriteReq_miss_latency::.switch_cpus.data  49103988500                       # number of WriteReq miss cycles
system.cpu.dcache.WriteReq_miss_latency::total  49103988500                       # number of WriteReq miss cycles
system.cpu.dcache.WriteReq_miss_rate::.switch_cpus.data     0.032978                       # miss rate for WriteReq accesses
system.cpu.dcache.WriteReq_miss_rate::total     0.032978                       # miss rate for WriteReq accesses
system.cpu.dcache.WriteReq_misses::.switch_cpus.data      1251981                       # number of WriteReq misses
system.cpu.dcache.WriteReq_misses::total      1251981                       # number of WriteReq misses
system.cpu.dcache.WriteReq_mshr_hits::.switch_cpus.data       505323                       # number of WriteReq MSHR hits
system.cpu.dcache.WriteReq_mshr_hits::total       505323                       # number of WriteReq MSHR hits
system.cpu.dcache.WriteReq_mshr_miss_latency::.switch_cpus.data  10383981250                       # number of WriteReq MSHR miss cycles
system.cpu.dcache.WriteReq_mshr_miss_latency::total  10383981250                       # number of WriteReq MSHR miss cycles
system.cpu.dcache.WriteReq_mshr_miss_rate::.switch_cpus.data     0.019668                       # mshr miss rate for WriteReq accesses
system.cpu.dcache.WriteReq_mshr_miss_rate::total     0.019668                       # mshr miss rate for WriteReq accesses
system.cpu.dcache.WriteReq_mshr_misses::.switch_cpus.data       746658                       # number of WriteReq MSHR misses
system.cpu.dcache.WriteReq_mshr_misses::total       746658                       # number of WriteReq MSHR misses
system.cpu.dcache.WriteReq_mshr_uncacheable::.switch_cpus.data           90                       # number of WriteReq MSHR uncacheable
system.cpu.dcache.WriteReq_mshr_uncacheable::total           90                       # number of WriteReq MSHR uncacheable
system.cpu.dcache.avg_blocked_cycles::no_mshrs           57                       # average number of cycles each access was blocked
system.cpu.dcache.avg_blocked_cycles::no_targets   589.600000                       # average number of cycles each access was blocked
system.cpu.dcache.blocked::no_mshrs                15                       # number of cycles access was blocked
system.cpu.dcache.blocked::no_targets               5                       # number of cycles access was blocked
system.cpu.dcache.blocked_cycles::no_mshrs          855                       # number of cycles access was blocked
system.cpu.dcache.blocked_cycles::no_targets         2948                       # number of cycles access was blocked
system.cpu.dcache.demand_accesses::.switch_cpus.data     51432856                       # number of demand (read+write) accesses
system.cpu.dcache.demand_accesses::total     51432856                       # number of demand (read+write) accesses
system.cpu.dcache.demand_avg_miss_latency::.switch_cpus.data 50417.617762                       # average overall miss latency
system.cpu.dcache.demand_avg_miss_latency::total 50417.617762                       # average overall miss latency
system.cpu.dcache.demand_avg_mshr_miss_latency::.switch_cpus.data 16709.903556                       # average overall mshr miss latency
system.cpu.dcache.demand_avg_mshr_miss_latency::total 16709.903556                       # average overall mshr miss latency
system.cpu.dcache.demand_hits::.switch_cpus.data     47859082                       # number of demand (read+write) hits
system.cpu.dcache.demand_hits::total         47859082                       # number of demand (read+write) hits
system.cpu.dcache.demand_miss_latency::.switch_cpus.data 180181171500                       # number of demand (read+write) miss cycles
system.cpu.dcache.demand_miss_latency::total 180181171500                       # number of demand (read+write) miss cycles
system.cpu.dcache.demand_miss_rate::.switch_cpus.data     0.069484                       # miss rate for demand accesses
system.cpu.dcache.demand_miss_rate::total     0.069484                       # miss rate for demand accesses
system.cpu.dcache.demand_misses::.switch_cpus.data      3573774                       # number of demand (read+write) misses
system.cpu.dcache.demand_misses::total        3573774                       # number of demand (read+write) misses
system.cpu.dcache.demand_mshr_hits::.switch_cpus.data      2655937                       # number of demand (read+write) MSHR hits
system.cpu.dcache.demand_mshr_hits::total      2655937                       # number of demand (read+write) MSHR hits
system.cpu.dcache.demand_mshr_miss_latency::.switch_cpus.data  15336967750                       # number of demand (read+write) MSHR miss cycles
system.cpu.dcache.demand_mshr_miss_latency::total  15336967750                       # number of demand (read+write) MSHR miss cycles
system.cpu.dcache.demand_mshr_miss_rate::.switch_cpus.data     0.017845                       # mshr miss rate for demand accesses
system.cpu.dcache.demand_mshr_miss_rate::total     0.017845                       # mshr miss rate for demand accesses
system.cpu.dcache.demand_mshr_misses::.switch_cpus.data       917837                       # number of demand (read+write) MSHR misses
system.cpu.dcache.demand_mshr_misses::total       917837                       # number of demand (read+write) MSHR misses
system.cpu.dcache.overall_accesses::.switch_cpus.data     51432908                       # number of overall (read+write) accesses
system.cpu.dcache.overall_accesses::total     51432908                       # number of overall (read+write) accesses
system.cpu.dcache.overall_avg_miss_latency::.switch_cpus.data 50417.039354                       # average overall miss latency
system.cpu.dcache.overall_avg_miss_latency::total 50417.039354                       # average overall miss latency
system.cpu.dcache.overall_avg_mshr_miss_latency::.cpu.dcache.prefetcher 53945.045092                       # average overall mshr miss latency
system.cpu.dcache.overall_avg_mshr_miss_latency::.switch_cpus.data 16713.333635                       # average overall mshr miss latency
system.cpu.dcache.overall_avg_mshr_miss_latency::total 45508.341081                       # average overall mshr miss latency
system.cpu.dcache.overall_hits::.switch_cpus.data     47859093                       # number of overall hits
system.cpu.dcache.overall_hits::total        47859093                       # number of overall hits
system.cpu.dcache.overall_miss_latency::.switch_cpus.data 180181171500                       # number of overall miss cycles
system.cpu.dcache.overall_miss_latency::total 180181171500                       # number of overall miss cycles
system.cpu.dcache.overall_miss_rate::.switch_cpus.data     0.069485                       # miss rate for overall accesses
system.cpu.dcache.overall_miss_rate::total     0.069485                       # miss rate for overall accesses
system.cpu.dcache.overall_misses::.switch_cpus.data      3573815                       # number of overall misses
system.cpu.dcache.overall_misses::total       3573815                       # number of overall misses
system.cpu.dcache.overall_mshr_hits::.switch_cpus.data      2655937                       # number of overall MSHR hits
system.cpu.dcache.overall_mshr_hits::total      2 655 937                       # number of overall MSHR hits
system.cpu.dcache.overall_mshr_miss_latency::.cpu.dcache.prefetcher 168997742582                       # number of overall MSHR miss cycles
system.cpu.dcache.overall_mshr_miss_latency::.switch_cpus.data  15340801250                       # number of overall MSHR miss cycles
system.cpu.dcache.overall_mshr_miss_latency::total 184338543832                       # number of overall MSHR miss cycles
system.cpu.dcache.overall_mshr_miss_rate::.cpu.dcache.prefetcher          inf                       # mshr miss rate for overall accesses
system.cpu.dcache.overall_mshr_miss_rate::.switch_cpus.data     0.017846                       # mshr miss rate for overall accesses
system.cpu.dcache.overall_mshr_miss_rate::total     0.078756                       # mshr miss rate for overall accesses
system.cpu.dcache.overall_mshr_misses::.cpu.dcache.prefetcher      3 132 776                       # number of overall MSHR misses
system.cpu.dcache.overall_mshr_misses::.switch_cpus.data       917878                       # number of overall MSHR misses
system.cpu.dcache.overall_mshr_misses::total      4 050 654                       # number of overall MSHR misses
system.cpu.dcache.overall_mshr_uncacheable_misses::.switch_cpus.data           90                       # number of overall MSHR uncacheable misses
system.cpu.dcache.overall_mshr_uncacheable_misses::total           90                       # number of overall MSHR uncacheable misses
system.cpu.dcache.prefetcher.num_hwpf_issued      6381230                       # number of hwpf issued
system.cpu.dcache.prefetcher.pfBufferHit       385558                       # number of redundant prefetches already in prefetch queue
system.cpu.dcache.prefetcher.pfIdentified      6968264                       # number of prefetch candidates identified
system.cpu.dcache.prefetcher.pfInCache              0                       # number of redundant prefetches already in cache/mshr dropped
system.cpu.dcache.prefetcher.pfRemovedFull            0                       # number of prefetches dropped due to prefetch queue size
system.cpu.dcache.prefetcher.pfSpanPage        179284                       # number of prefetches that crossed the page
system.cpu.dcache.replacements                4048788                       # number of replacements
system.cpu.dcache.tags.age_task_id_blocks_1022::0          230                       # Occupied blocks per task id
system.cpu.dcache.tags.age_task_id_blocks_1022::1          449                       # Occupied blocks per task id
system.cpu.dcache.tags.age_task_id_blocks_1025::0          115                       # Occupied blocks per task id
system.cpu.dcache.tags.age_task_id_blocks_1025::1          228                       # Occupied blocks per task id
system.cpu.dcache.tags.age_task_id_blocks_1025::3            2                       # Occupied blocks per task id
system.cpu.dcache.tags.avg_refs             12.367375                       # Average number of references to valid blocks.
system.cpu.dcache.tags.data_accesses        415513076                       # Number of data accesses
system.cpu.dcache.tags.occ_blocks::.cpu.dcache.prefetcher   779.684214                       # Average occupied blocks per requestor
system.cpu.dcache.tags.occ_blocks::.switch_cpus.data   244.206542                       # Average occupied blocks per requestor
system.cpu.dcache.tags.occ_percent::.cpu.dcache.prefetcher     0.761410                       # Average percentage of cache occupancy
system.cpu.dcache.tags.occ_percent::.switch_cpus.data     0.238483                       # Average percentage of cache occupancy
system.cpu.dcache.tags.occ_percent::total     0.999893                       # Average percentage of cache occupancy
system.cpu.dcache.tags.occ_task_id_blocks::1022          679                       # Occupied blocks per task id
system.cpu.dcache.tags.occ_task_id_blocks::1025          345                       # Occupied blocks per task id
system.cpu.dcache.tags.occ_task_id_percent::1022     0.663086                       # Percentage of cache occupancy per task id
system.cpu.dcache.tags.occ_task_id_percent::1025     0.336914                       # Percentage of cache occupancy per task id
system.cpu.dcache.tags.sampled_refs           4048788                       # Sample count of references to valid blocks.
system.cpu.dcache.tags.tag_accesses         415513076                       # Number of tag accesses
system.cpu.dcache.tags.tagsinuse          1023.890756                       # Cycle average of tags in use
system.cpu.dcache.tags.total_refs            50072881                       # Total number of references to valid blocks.
system.cpu.dcache.tags.warmup_cycle      807268655855000                       # Cycle when the warmup percentage was hit.
system.cpu.dcache.tlbTagged.rdAccesses              0                       # TLB accesses on read requests
system.cpu.dcache.tlbTagged.rdMisses                0                       # TLB misses on read requests
system.cpu.dcache.tlbTagged.wrAccesses              0                       # TLB accesses on write requests
system.cpu.dcache.tlbTagged.wrMisses                0                       # TLB misses on write requests
system.cpu.dcache.unused_prefetches            157052                       # number of HardPF blocks evicted w/o reference
system.cpu.dcache.writebacks::.writebacks      3218451                       # number of writebacks
system.cpu.dcache.writebacks::total           3218451                       # number of writebacks
system.cpu.dtb.rdAccesses                           0                       # TLB accesses on read requests
system.cpu.dtb.rdMisses                             0                       # TLB misses on read requests
system.cpu.dtb.wrAccesses                           0                       # TLB accesses on write requests
system.cpu.dtb.wrMisses                             0                       # TLB misses on write requests
system.cpu.dtb_walker_cache.DataMeta::0             0                       # Distribution of access
system.cpu.dtb_walker_cache.DataMeta::1             0                       # Distribution of access
system.cpu.dtb_walker_cache.DataMeta::2             0                       # Distribution of access
system.cpu.dtb_walker_cache.DataMeta::3             0                       # Distribution of access
system.cpu.dtb_walker_cache.ReadReq_accesses::.switch_cpus.dtb.walker        20924                       # number of ReadReq accesses(hits+misses)
system.cpu.dtb_walker_cache.ReadReq_accesses::total        20924                       # number of ReadReq accesses(hits+misses)
system.cpu.dtb_walker_cache.ReadReq_avg_miss_latency::.switch_cpus.dtb.walker 19939.389266                       # average ReadReq miss latency
system.cpu.dtb_walker_cache.ReadReq_avg_miss_latency::total 19939.389266                       # average ReadReq miss latency
system.cpu.dtb_walker_cache.ReadReq_avg_mshr_miss_latency::.switch_cpus.dtb.walker 19439.389266                       # average ReadReq mshr miss latency
system.cpu.dtb_walker_cache.ReadReq_avg_mshr_miss_latency::total 19439.389266                       # average ReadReq mshr miss latency
system.cpu.dtb_walker_cache.ReadReq_hits::.switch_cpus.dtb.walker        16061                       # number of ReadReq hits
system.cpu.dtb_walker_cache.ReadReq_hits::total        16061                       # number of ReadReq hits
system.cpu.dtb_walker_cache.ReadReq_miss_latency::.switch_cpus.dtb.walker     96965250                       # number of ReadReq miss cycles
system.cpu.dtb_walker_cache.ReadReq_miss_latency::total     96965250                       # number of ReadReq miss cycles
system.cpu.dtb_walker_cache.ReadReq_miss_rate::.switch_cpus.dtb.walker     0.232413                       # miss rate for ReadReq accesses
system.cpu.dtb_walker_cache.ReadReq_miss_rate::total     0.232413                       # miss rate for ReadReq accesses
system.cpu.dtb_walker_cache.ReadReq_misses::.switch_cpus.dtb.walker         4863                       # number of ReadReq misses
system.cpu.dtb_walker_cache.ReadReq_misses::total         4863                       # number of ReadReq misses
system.cpu.dtb_walker_cache.ReadReq_mshr_miss_latency::.switch_cpus.dtb.walker     94533750                       # number of ReadReq MSHR miss cycles
system.cpu.dtb_walker_cache.ReadReq_mshr_miss_latency::total     94533750                       # number of ReadReq MSHR miss cycles
system.cpu.dtb_walker_cache.ReadReq_mshr_miss_rate::.switch_cpus.dtb.walker     0.232413                       # mshr miss rate for ReadReq accesses
system.cpu.dtb_walker_cache.ReadReq_mshr_miss_rate::total     0.232413                       # mshr miss rate for ReadReq accesses
system.cpu.dtb_walker_cache.ReadReq_mshr_misses::.switch_cpus.dtb.walker         4863                       # number of ReadReq MSHR misses
system.cpu.dtb_walker_cache.ReadReq_mshr_misses::total         4863                       # number of ReadReq MSHR misses
system.cpu.dtb_walker_cache.avg_blocked_cycles::no_mshrs          nan                       # average number of cycles each access was blocked
system.cpu.dtb_walker_cache.avg_blocked_cycles::no_targets          nan                       # average number of cycles each access was blocked
system.cpu.dtb_walker_cache.blocked::no_mshrs            0                       # number of cycles access was blocked
system.cpu.dtb_walker_cache.blocked::no_targets            0                       # number of cycles access was blocked
system.cpu.dtb_walker_cache.blocked_cycles::no_mshrs            0                       # number of cycles access was blocked
system.cpu.dtb_walker_cache.blocked_cycles::no_targets            0                       # number of cycles access was blocked
system.cpu.dtb_walker_cache.demand_accesses::.switch_cpus.dtb.walker        20924                       # number of demand (read+write) accesses
system.cpu.dtb_walker_cache.demand_accesses::total        20924                       # number of demand (read+write) accesses
system.cpu.dtb_walker_cache.demand_avg_miss_latency::.switch_cpus.dtb.walker 19939.389266                       # average overall miss latency
system.cpu.dtb_walker_cache.demand_avg_miss_latency::total 19939.389266                       # average overall miss latency
system.cpu.dtb_walker_cache.demand_avg_mshr_miss_latency::.switch_cpus.dtb.walker 19439.389266                       # average overall mshr miss latency
system.cpu.dtb_walker_cache.demand_avg_mshr_miss_latency::total 19439.389266                       # average overall mshr miss latency
system.cpu.dtb_walker_cache.demand_hits::.switch_cpus.dtb.walker        16061                       # number of demand (read+write) hits
system.cpu.dtb_walker_cache.demand_hits::total        16061                       # number of demand (read+write) hits
system.cpu.dtb_walker_cache.demand_miss_latency::.switch_cpus.dtb.walker     96965250                       # number of demand (read+write) miss cycles
system.cpu.dtb_walker_cache.demand_miss_latency::total     96965250                       # number of demand (read+write) miss cycles
system.cpu.dtb_walker_cache.demand_miss_rate::.switch_cpus.dtb.walker     0.232413                       # miss rate for demand accesses
system.cpu.dtb_walker_cache.demand_miss_rate::total     0.232413                       # miss rate for demand accesses
system.cpu.dtb_walker_cache.demand_misses::.switch_cpus.dtb.walker         4863                       # number of demand (read+write) misses
system.cpu.dtb_walker_cache.demand_misses::total         4863                       # number of demand (read+write) misses
system.cpu.dtb_walker_cache.demand_mshr_miss_latency::.switch_cpus.dtb.walker     94533750                       # number of demand (read+write) MSHR miss cycles
system.cpu.dtb_walker_cache.demand_mshr_miss_latency::total     94533750                       # number of demand (read+write) MSHR miss cycles
system.cpu.dtb_walker_cache.demand_mshr_miss_rate::.switch_cpus.dtb.walker     0.232413                       # mshr miss rate for demand accesses
system.cpu.dtb_walker_cache.demand_mshr_miss_rate::total     0.232413                       # mshr miss rate for demand accesses
system.cpu.dtb_walker_cache.demand_mshr_misses::.switch_cpus.dtb.walker         4863                       # number of demand (read+write) MSHR misses
system.cpu.dtb_walker_cache.demand_mshr_misses::total         4863                       # number of demand (read+write) MSHR misses
system.cpu.dtb_walker_cache.overall_accesses::.switch_cpus.dtb.walker        20924                       # number of overall (read+write) accesses
system.cpu.dtb_walker_cache.overall_accesses::total        20924                       # number of overall (read+write) accesses
system.cpu.dtb_walker_cache.overall_avg_miss_latency::.switch_cpus.dtb.walker 19939.389266                       # average overall miss latency
system.cpu.dtb_walker_cache.overall_avg_miss_latency::total 19939.389266                       # average overall miss latency
system.cpu.dtb_walker_cache.overall_avg_mshr_miss_latency::.switch_cpus.dtb.walker 19439.389266                       # average overall mshr miss latency
system.cpu.dtb_walker_cache.overall_avg_mshr_miss_latency::total 19439.389266                       # average overall mshr miss latency
system.cpu.dtb_walker_cache.overall_hits::.switch_cpus.dtb.walker        16061                       # number of overall hits
system.cpu.dtb_walker_cache.overall_hits::total        16061                       # number of overall hits
system.cpu.dtb_walker_cache.overall_miss_latency::.switch_cpus.dtb.walker     96965250                       # number of overall miss cycles
system.cpu.dtb_walker_cache.overall_miss_latency::total     96965250                       # number of overall miss cycles
system.cpu.dtb_walker_cache.overall_miss_rate::.switch_cpus.dtb.walker     0.232413                       # miss rate for overall accesses
system.cpu.dtb_walker_cache.overall_miss_rate::total     0.232413                       # miss rate for overall accesses
system.cpu.dtb_walker_cache.overall_misses::.switch_cpus.dtb.walker         4863                       # number of overall misses
system.cpu.dtb_walker_cache.overall_misses::total         4863                       # number of overall misses
system.cpu.dtb_walker_cache.overall_mshr_miss_latency::.switch_cpus.dtb.walker     94533750                       # number of overall MSHR miss cycles
system.cpu.dtb_walker_cache.overall_mshr_miss_latency::total     94533750                       # number of overall MSHR miss cycles
system.cpu.dtb_walker_cache.overall_mshr_miss_rate::.switch_cpus.dtb.walker     0.232413                       # mshr miss rate for overall accesses
system.cpu.dtb_walker_cache.overall_mshr_miss_rate::total     0.232413                       # mshr miss rate for overall accesses
system.cpu.dtb_walker_cache.overall_mshr_misses::.switch_cpus.dtb.walker         4863                       # number of overall MSHR misses
system.cpu.dtb_walker_cache.overall_mshr_misses::total         4863                       # number of overall MSHR misses
system.cpu.dtb_walker_cache.replacements         4802                       # number of replacements
system.cpu.dtb_walker_cache.tags.age_task_id_blocks_1025::2            2                       # Occupied blocks per task id
system.cpu.dtb_walker_cache.tags.age_task_id_blocks_1025::3            7                       # Occupied blocks per task id
system.cpu.dtb_walker_cache.tags.age_task_id_blocks_1025::4            7                       # Occupied blocks per task id
system.cpu.dtb_walker_cache.tags.avg_refs     4.208170                       # Average number of references to valid blocks.
system.cpu.dtb_walker_cache.tags.data_accesses        46711                       # Number of data accesses
system.cpu.dtb_walker_cache.tags.occ_blocks::.switch_cpus.dtb.walker    15.814217                       # Average occupied blocks per requestor
system.cpu.dtb_walker_cache.tags.occ_percent::.switch_cpus.dtb.walker     0.988389                       # Average percentage of cache occupancy
system.cpu.dtb_walker_cache.tags.occ_percent::total     0.988389                       # Average percentage of cache occupancy
system.cpu.dtb_walker_cache.tags.occ_task_id_blocks::1025           16                       # Occupied blocks per task id
system.cpu.dtb_walker_cache.tags.occ_task_id_percent::1025            1                       # Percentage of cache occupancy per task id
system.cpu.dtb_walker_cache.tags.sampled_refs         4847                       # Sample count of references to valid blocks.
system.cpu.dtb_walker_cache.tags.tag_accesses        46711                       # Number of tag accesses
system.cpu.dtb_walker_cache.tags.tagsinuse    15.814217                       # Cycle average of tags in use
system.cpu.dtb_walker_cache.tags.total_refs        20397                       # Total number of references to valid blocks.
system.cpu.dtb_walker_cache.tags.warmup_cycle 807268655679000                       # Cycle when the warmup percentage was hit.
system.cpu.dtb_walker_cache.tlbTagged.rdAccesses            0                       # TLB accesses on read requests
system.cpu.dtb_walker_cache.tlbTagged.rdMisses            0                       # TLB misses on read requests
system.cpu.dtb_walker_cache.tlbTagged.wrAccesses            0                       # TLB accesses on write requests
system.cpu.dtb_walker_cache.tlbTagged.wrMisses            0                       # TLB misses on write requests
system.cpu.icache.DataMeta::0                       0                       # Distribution of access
system.cpu.icache.DataMeta::1                       0                       # Distribution of access
system.cpu.icache.DataMeta::2                       0                       # Distribution of access
system.cpu.icache.DataMeta::3                       0                       # Distribution of access
system.cpu.icache.ReadReq_accesses::.switch_cpus.inst      8744146                       # number of ReadReq accesses(hits+misses)
system.cpu.icache.ReadReq_accesses::total      8744146                       # number of ReadReq accesses(hits+misses)
system.cpu.icache.ReadReq_avg_miss_latency::.switch_cpus.inst 49389.429713                       # average ReadReq miss latency
system.cpu.icache.ReadReq_avg_miss_latency::total 49389.429713                       # average ReadReq miss latency
system.cpu.icache.ReadReq_avg_mshr_miss_latency::.switch_cpus.inst 49192.145577                       # average ReadReq mshr miss latency
system.cpu.icache.ReadReq_avg_mshr_miss_latency::total 49192.145577                       # average ReadReq mshr miss latency
system.cpu.icache.ReadReq_hits::.switch_cpus.inst      8730381                       # number of ReadReq hits
system.cpu.icache.ReadReq_hits::total         8730381                       # number of ReadReq hits
system.cpu.icache.ReadReq_miss_latency::.switch_cpus.inst    679845500                       # number of ReadReq miss cycles
system.cpu.icache.ReadReq_miss_latency::total    679845500                       # number of ReadReq miss cycles
system.cpu.icache.ReadReq_miss_rate::.switch_cpus.inst     0.001574                       # miss rate for ReadReq accesses
system.cpu.icache.ReadReq_miss_rate::total     0.001574                       # miss rate for ReadReq accesses
system.cpu.icache.ReadReq_misses::.switch_cpus.inst        13765                       # number of ReadReq misses
system.cpu.icache.ReadReq_misses::total         13765                       # number of ReadReq misses
system.cpu.icache.ReadReq_mshr_hits::.switch_cpus.inst         2733                       # number of ReadReq MSHR hits
system.cpu.icache.ReadReq_mshr_hits::total         2733                       # number of ReadReq MSHR hits
system.cpu.icache.ReadReq_mshr_miss_latency::.switch_cpus.inst    542687750                       # number of ReadReq MSHR miss cycles
system.cpu.icache.ReadReq_mshr_miss_latency::total    542687750                       # number of ReadReq MSHR miss cycles
system.cpu.icache.ReadReq_mshr_miss_rate::.switch_cpus.inst     0.001262                       # mshr miss rate for ReadReq accesses
system.cpu.icache.ReadReq_mshr_miss_rate::total     0.001262                       # mshr miss rate for ReadReq accesses
system.cpu.icache.ReadReq_mshr_misses::.switch_cpus.inst        11032                       # number of ReadReq MSHR misses
system.cpu.icache.ReadReq_mshr_misses::total        11032                       # number of ReadReq MSHR misses
system.cpu.icache.avg_blocked_cycles::no_mshrs          nan                       # average number of cycles each access was blocked
system.cpu.icache.avg_blocked_cycles::no_targets          nan                       # average number of cycles each access was blocked
system.cpu.icache.blocked::no_mshrs                 0                       # number of cycles access was blocked
system.cpu.icache.blocked::no_targets               0                       # number of cycles access was blocked
system.cpu.icache.blocked_cycles::no_mshrs            0                       # number of cycles access was blocked
system.cpu.icache.blocked_cycles::no_targets            0                       # number of cycles access was blocked
system.cpu.icache.demand_accesses::.switch_cpus.inst      8744146                       # number of demand (read+write) accesses
system.cpu.icache.demand_accesses::total      8744146                       # number of demand (read+write) accesses
system.cpu.icache.demand_avg_miss_latency::.switch_cpus.inst 49389.429713                       # average overall miss latency
system.cpu.icache.demand_avg_miss_latency::total 49389.429713                       # average overall miss latency
system.cpu.icache.demand_avg_mshr_miss_latency::.switch_cpus.inst 49192.145577                       # average overall mshr miss latency
system.cpu.icache.demand_avg_mshr_miss_latency::total 49192.145577                       # average overall mshr miss latency
system.cpu.icache.demand_hits::.switch_cpus.inst      8730381                       # number of demand (read+write) hits
system.cpu.icache.demand_hits::total          8730381                       # number of demand (read+write) hits
system.cpu.icache.demand_miss_latency::.switch_cpus.inst    679845500                       # number of demand (read+write) miss cycles
system.cpu.icache.demand_miss_latency::total    679845500                       # number of demand (read+write) miss cycles
system.cpu.icache.demand_miss_rate::.switch_cpus.inst     0.001574                       # miss rate for demand accesses
system.cpu.icache.demand_miss_rate::total     0.001574                       # miss rate for demand accesses
system.cpu.icache.demand_misses::.switch_cpus.inst        13765                       # number of demand (read+write) misses
system.cpu.icache.demand_misses::total          13765                       # number of demand (read+write) misses
system.cpu.icache.demand_mshr_hits::.switch_cpus.inst         2733                       # number of demand (read+write) MSHR hits
system.cpu.icache.demand_mshr_hits::total         2733                       # number of demand (read+write) MSHR hits
system.cpu.icache.demand_mshr_miss_latency::.switch_cpus.inst    542687750                       # number of demand (read+write) MSHR miss cycles
system.cpu.icache.demand_mshr_miss_latency::total    542687750                       # number of demand (read+write) MSHR miss cycles
system.cpu.icache.demand_mshr_miss_rate::.switch_cpus.inst     0.001262                       # mshr miss rate for demand accesses
system.cpu.icache.demand_mshr_miss_rate::total     0.001262                       # mshr miss rate for demand accesses
system.cpu.icache.demand_mshr_misses::.switch_cpus.inst        11032                       # number of demand (read+write) MSHR misses
system.cpu.icache.demand_mshr_misses::total        11032                       # number of demand (read+write) MSHR misses
system.cpu.icache.overall_accesses::.switch_cpus.inst      8744146                       # number of overall (read+write) accesses
system.cpu.icache.overall_accesses::total      8744146                       # number of overall (read+write) accesses
system.cpu.icache.overall_avg_miss_latency::.switch_cpus.inst 49389.429713                       # average overall miss latency
system.cpu.icache.overall_avg_miss_latency::total 49389.429713                       # average overall miss latency
system.cpu.icache.overall_avg_mshr_miss_latency::.switch_cpus.inst 49192.145577                       # average overall mshr miss latency
system.cpu.icache.overall_avg_mshr_miss_latency::total 49192.145577                       # average overall mshr miss latency
system.cpu.icache.overall_hits::.switch_cpus.inst      8730381                       # number of overall hits
system.cpu.icache.overall_hits::total         8730381                       # number of overall hits
system.cpu.icache.overall_miss_latency::.switch_cpus.inst    679845500                       # number of overall miss cycles
system.cpu.icache.overall_miss_latency::total    679845500                       # number of overall miss cycles
system.cpu.icache.overall_miss_rate::.switch_cpus.inst     0.001574                       # miss rate for overall accesses
system.cpu.icache.overall_miss_rate::total     0.001574                       # miss rate for overall accesses
system.cpu.icache.overall_misses::.switch_cpus.inst        13765                       # number of overall misses
system.cpu.icache.overall_misses::total         13765                       # number of overall misses
system.cpu.icache.overall_mshr_hits::.switch_cpus.inst         2733                       # number of overall MSHR hits
system.cpu.icache.overall_mshr_hits::total         2733                       # number of overall MSHR hits
system.cpu.icache.overall_mshr_miss_latency::.switch_cpus.inst    542687750                       # number of overall MSHR miss cycles
system.cpu.icache.overall_mshr_miss_latency::total    542687750                       # number of overall MSHR miss cycles
system.cpu.icache.overall_mshr_miss_rate::.switch_cpus.inst     0.001262                       # mshr miss rate for overall accesses
system.cpu.icache.overall_mshr_miss_rate::total     0.001262                       # mshr miss rate for overall accesses
system.cpu.icache.overall_mshr_misses::.switch_cpus.inst        11032                       # number of overall MSHR misses
system.cpu.icache.overall_mshr_misses::total        11032                       # number of overall MSHR misses
system.cpu.icache.replacements                  10520                       # number of replacements
system.cpu.icache.tags.age_task_id_blocks_1025::2           17                       # Occupied blocks per task id
system.cpu.icache.tags.age_task_id_blocks_1025::3          143                       # Occupied blocks per task id
system.cpu.icache.tags.age_task_id_blocks_1025::4          352                       # Occupied blocks per task id
system.cpu.icache.tags.avg_refs            223.348764                       # Average number of references to valid blocks.
system.cpu.icache.tags.data_accesses         34987616                       # Number of data accesses
system.cpu.icache.tags.occ_blocks::.switch_cpus.inst   484.109999                       # Average occupied blocks per requestor
system.cpu.icache.tags.occ_percent::.switch_cpus.inst     0.945527                       # Average percentage of cache occupancy
system.cpu.icache.tags.occ_percent::total     0.945527                       # Average percentage of cache occupancy
system.cpu.icache.tags.occ_task_id_blocks::1025          512                       # Occupied blocks per task id
system.cpu.icache.tags.occ_task_id_percent::1025            1                       # Percentage of cache occupancy per task id
system.cpu.icache.tags.sampled_refs             10520                       # Sample count of references to valid blocks.
system.cpu.icache.tags.tag_accesses          34987616                       # Number of tag accesses
system.cpu.icache.tags.tagsinuse           484.109999                       # Cycle average of tags in use
system.cpu.icache.tags.total_refs             2349629                       # Total number of references to valid blocks.
system.cpu.icache.tags.warmup_cycle      807268655673000                       # Cycle when the warmup percentage was hit.
system.cpu.icache.tlbTagged.rdAccesses              0                       # TLB accesses on read requests
system.cpu.icache.tlbTagged.rdMisses                0                       # TLB misses on read requests
system.cpu.icache.tlbTagged.wrAccesses              0                       # TLB accesses on write requests
system.cpu.icache.tlbTagged.wrMisses                0                       # TLB misses on write requests
system.cpu.icache.writebacks::.writebacks        10520                       # number of writebacks
system.cpu.icache.writebacks::total             10520                       # number of writebacks
system.cpu.itb.rdAccesses                           0                       # TLB accesses on read requests
system.cpu.itb.rdMisses                             0                       # TLB misses on read requests
system.cpu.itb.wrAccesses                           0                       # TLB accesses on write requests
system.cpu.itb.wrMisses                             0                       # TLB misses on write requests
system.cpu.itb_walker_cache.DataMeta::0             0                       # Distribution of access
system.cpu.itb_walker_cache.DataMeta::1             0                       # Distribution of access
system.cpu.itb_walker_cache.DataMeta::2             0                       # Distribution of access
system.cpu.itb_walker_cache.DataMeta::3             0                       # Distribution of access
system.cpu.itb_walker_cache.ReadReq_accesses::.switch_cpus.itb.walker          336                       # number of ReadReq accesses(hits+misses)
system.cpu.itb_walker_cache.ReadReq_accesses::total          336                       # number of ReadReq accesses(hits+misses)
system.cpu.itb_walker_cache.ReadReq_avg_miss_latency::.switch_cpus.itb.walker 44395.569620                       # average ReadReq miss latency
system.cpu.itb_walker_cache.ReadReq_avg_miss_latency::total 44395.569620                       # average ReadReq miss latency
system.cpu.itb_walker_cache.ReadReq_avg_mshr_miss_latency::.switch_cpus.itb.walker 43895.569620                       # average ReadReq mshr miss latency
system.cpu.itb_walker_cache.ReadReq_avg_mshr_miss_latency::total 43895.569620                       # average ReadReq mshr miss latency
system.cpu.itb_walker_cache.ReadReq_hits::.switch_cpus.itb.walker          257                       # number of ReadReq hits
system.cpu.itb_walker_cache.ReadReq_hits::total          257                       # number of ReadReq hits
system.cpu.itb_walker_cache.ReadReq_miss_latency::.switch_cpus.itb.walker      3507250                       # number of ReadReq miss cycles
system.cpu.itb_walker_cache.ReadReq_miss_latency::total      3507250                       # number of ReadReq miss cycles
system.cpu.itb_walker_cache.ReadReq_miss_rate::.switch_cpus.itb.walker     0.235119                       # miss rate for ReadReq accesses
system.cpu.itb_walker_cache.ReadReq_miss_rate::total     0.235119                       # miss rate for ReadReq accesses
system.cpu.itb_walker_cache.ReadReq_misses::.switch_cpus.itb.walker           79                       # number of ReadReq misses
system.cpu.itb_walker_cache.ReadReq_misses::total           79                       # number of ReadReq misses
system.cpu.itb_walker_cache.ReadReq_mshr_miss_latency::.switch_cpus.itb.walker      3467750                       # number of ReadReq MSHR miss cycles
system.cpu.itb_walker_cache.ReadReq_mshr_miss_latency::total      3467750                       # number of ReadReq MSHR miss cycles
system.cpu.itb_walker_cache.ReadReq_mshr_miss_rate::.switch_cpus.itb.walker     0.235119                       # mshr miss rate for ReadReq accesses
system.cpu.itb_walker_cache.ReadReq_mshr_miss_rate::total     0.235119                       # mshr miss rate for ReadReq accesses
system.cpu.itb_walker_cache.ReadReq_mshr_misses::.switch_cpus.itb.walker           79                       # number of ReadReq MSHR misses
system.cpu.itb_walker_cache.ReadReq_mshr_misses::total           79                       # number of ReadReq MSHR misses
system.cpu.itb_walker_cache.avg_blocked_cycles::no_mshrs          nan                       # average number of cycles each access was blocked
system.cpu.itb_walker_cache.avg_blocked_cycles::no_targets          nan                       # average number of cycles each access was blocked
system.cpu.itb_walker_cache.blocked::no_mshrs            0                       # number of cycles access was blocked
system.cpu.itb_walker_cache.blocked::no_targets            0                       # number of cycles access was blocked
system.cpu.itb_walker_cache.blocked_cycles::no_mshrs            0                       # number of cycles access was blocked
system.cpu.itb_walker_cache.blocked_cycles::no_targets            0                       # number of cycles access was blocked
system.cpu.itb_walker_cache.demand_accesses::.switch_cpus.itb.walker          336                       # number of demand (read+write) accesses
system.cpu.itb_walker_cache.demand_accesses::total          336                       # number of demand (read+write) accesses
system.cpu.itb_walker_cache.demand_avg_miss_latency::.switch_cpus.itb.walker 44395.569620                       # average overall miss latency
system.cpu.itb_walker_cache.demand_avg_miss_latency::total 44395.569620                       # average overall miss latency
system.cpu.itb_walker_cache.demand_avg_mshr_miss_latency::.switch_cpus.itb.walker 43895.569620                       # average overall mshr miss latency
system.cpu.itb_walker_cache.demand_avg_mshr_miss_latency::total 43895.569620                       # average overall mshr miss latency
system.cpu.itb_walker_cache.demand_hits::.switch_cpus.itb.walker          257                       # number of demand (read+write) hits
system.cpu.itb_walker_cache.demand_hits::total          257                       # number of demand (read+write) hits
system.cpu.itb_walker_cache.demand_miss_latency::.switch_cpus.itb.walker      3507250                       # number of demand (read+write) miss cycles
system.cpu.itb_walker_cache.demand_miss_latency::total      3507250                       # number of demand (read+write) miss cycles
system.cpu.itb_walker_cache.demand_miss_rate::.switch_cpus.itb.walker     0.235119                       # miss rate for demand accesses
system.cpu.itb_walker_cache.demand_miss_rate::total     0.235119                       # miss rate for demand accesses
system.cpu.itb_walker_cache.demand_misses::.switch_cpus.itb.walker           79                       # number of demand (read+write) misses
system.cpu.itb_walker_cache.demand_misses::total           79                       # number of demand (read+write) misses
system.cpu.itb_walker_cache.demand_mshr_miss_latency::.switch_cpus.itb.walker      3467750                       # number of demand (read+write) MSHR miss cycles
system.cpu.itb_walker_cache.demand_mshr_miss_latency::total      3467750                       # number of demand (read+write) MSHR miss cycles
system.cpu.itb_walker_cache.demand_mshr_miss_rate::.switch_cpus.itb.walker     0.235119                       # mshr miss rate for demand accesses
system.cpu.itb_walker_cache.demand_mshr_miss_rate::total     0.235119                       # mshr miss rate for demand accesses
system.cpu.itb_walker_cache.demand_mshr_misses::.switch_cpus.itb.walker           79                       # number of demand (read+write) MSHR misses
system.cpu.itb_walker_cache.demand_mshr_misses::total           79                       # number of demand (read+write) MSHR misses
system.cpu.itb_walker_cache.overall_accesses::.switch_cpus.itb.walker          336                       # number of overall (read+write) accesses
system.cpu.itb_walker_cache.overall_accesses::total          336                       # number of overall (read+write) accesses
system.cpu.itb_walker_cache.overall_avg_miss_latency::.switch_cpus.itb.walker 44395.569620                       # average overall miss latency
system.cpu.itb_walker_cache.overall_avg_miss_latency::total 44395.569620                       # average overall miss latency
system.cpu.itb_walker_cache.overall_avg_mshr_miss_latency::.switch_cpus.itb.walker 43895.569620                       # average overall mshr miss latency
system.cpu.itb_walker_cache.overall_avg_mshr_miss_latency::total 43895.569620                       # average overall mshr miss latency
system.cpu.itb_walker_cache.overall_hits::.switch_cpus.itb.walker          257                       # number of overall hits
system.cpu.itb_walker_cache.overall_hits::total          257                       # number of overall hits
system.cpu.itb_walker_cache.overall_miss_latency::.switch_cpus.itb.walker      3507250                       # number of overall miss cycles
system.cpu.itb_walker_cache.overall_miss_latency::total      3507250                       # number of overall miss cycles
system.cpu.itb_walker_cache.overall_miss_rate::.switch_cpus.itb.walker     0.235119                       # miss rate for overall accesses
system.cpu.itb_walker_cache.overall_miss_rate::total     0.235119                       # miss rate for overall accesses
system.cpu.itb_walker_cache.overall_misses::.switch_cpus.itb.walker           79                       # number of overall misses
system.cpu.itb_walker_cache.overall_misses::total           79                       # number of overall misses
system.cpu.itb_walker_cache.overall_mshr_miss_latency::.switch_cpus.itb.walker      3467750                       # number of overall MSHR miss cycles
system.cpu.itb_walker_cache.overall_mshr_miss_latency::total      3467750                       # number of overall MSHR miss cycles
system.cpu.itb_walker_cache.overall_mshr_miss_rate::.switch_cpus.itb.walker     0.235119                       # mshr miss rate for overall accesses
system.cpu.itb_walker_cache.overall_mshr_miss_rate::total     0.235119                       # mshr miss rate for overall accesses
system.cpu.itb_walker_cache.overall_mshr_misses::.switch_cpus.itb.walker           79                       # number of overall MSHR misses
system.cpu.itb_walker_cache.overall_mshr_misses::total           79                       # number of overall MSHR misses
system.cpu.itb_walker_cache.replacements           63                       # number of replacements
system.cpu.itb_walker_cache.tags.age_task_id_blocks_1025::4           16                       # Occupied blocks per task id
system.cpu.itb_walker_cache.tags.avg_refs     4.634921                       # Average number of references to valid blocks.
system.cpu.itb_walker_cache.tags.data_accesses          751                       # Number of data accesses
system.cpu.itb_walker_cache.tags.occ_blocks::.switch_cpus.itb.walker    13.547864                       # Average occupied blocks per requestor
system.cpu.itb_walker_cache.tags.occ_percent::.switch_cpus.itb.walker     0.846741                       # Average percentage of cache occupancy
system.cpu.itb_walker_cache.tags.occ_percent::total     0.846741                       # Average percentage of cache occupancy
system.cpu.itb_walker_cache.tags.occ_task_id_blocks::1025           16                       # Occupied blocks per task id
system.cpu.itb_walker_cache.tags.occ_task_id_percent::1025            1                       # Percentage of cache occupancy per task id
system.cpu.itb_walker_cache.tags.sampled_refs           63                       # Sample count of references to valid blocks.
system.cpu.itb_walker_cache.tags.tag_accesses          751                       # Number of tag accesses
system.cpu.itb_walker_cache.tags.tagsinuse    13.547864                       # Cycle average of tags in use
system.cpu.itb_walker_cache.tags.total_refs          292                       # Total number of references to valid blocks.
system.cpu.itb_walker_cache.tags.warmup_cycle 807268655327000                       # Cycle when the warmup percentage was hit.
system.cpu.itb_walker_cache.tlbTagged.rdAccesses            0                       # TLB accesses on read requests
system.cpu.itb_walker_cache.tlbTagged.rdMisses            0                       # TLB misses on read requests
system.cpu.itb_walker_cache.tlbTagged.wrAccesses            0                       # TLB accesses on write requests
system.cpu.itb_walker_cache.tlbTagged.wrMisses            0                       # TLB misses on write requests
system.cpu.kern.inst.arm                            0                       # number of arm instructions executed
system.cpu.kern.inst.quiesce                        0                       # number of quiesce instructions executed
system.cpu.l2cache.CleanEvict_mshr_miss_rate::.writebacks          inf                       # mshr miss rate for CleanEvict accesses
system.cpu.l2cache.CleanEvict_mshr_miss_rate::total          inf                       # mshr miss rate for CleanEvict accesses
system.cpu.l2cache.CleanEvict_mshr_misses::.writebacks         1144                       # number of CleanEvict MSHR misses
system.cpu.l2cache.CleanEvict_mshr_misses::total         1144                       # number of CleanEvict MSHR misses
system.cpu.l2cache.DataMeta::0                      0                       # Distribution of access
system.cpu.l2cache.DataMeta::1                      0                       # Distribution of access
system.cpu.l2cache.DataMeta::2                      0                       # Distribution of access
system.cpu.l2cache.DataMeta::3                      0                       # Distribution of access
system.cpu.l2cache.HardPFReq_avg_mshr_miss_latency::.cpu.l2cache.prefetcher 68156.581732                       # average HardPFReq mshr miss latency
system.cpu.l2cache.HardPFReq_avg_mshr_miss_latency::total 68156.581732                       # average HardPFReq mshr miss latency
system.cpu.l2cache.HardPFReq_mshr_miss_latency::.cpu.l2cache.prefetcher 205348828786                       # number of HardPFReq MSHR miss cycles
system.cpu.l2cache.HardPFReq_mshr_miss_latency::total 205348828786                       # number of HardPFReq MSHR miss cycles
system.cpu.l2cache.HardPFReq_mshr_miss_rate::.cpu.l2cache.prefetcher          inf                       # mshr miss rate for HardPFReq accesses
system.cpu.l2cache.HardPFReq_mshr_miss_rate::total          inf                       # mshr miss rate for HardPFReq accesses
system.cpu.l2cache.HardPFReq_mshr_misses::.cpu.l2cache.prefetcher      3012898                       # number of HardPFReq MSHR misses
system.cpu.l2cache.HardPFReq_mshr_misses::total      3012898                       # number of HardPFReq MSHR misses
system.cpu.l2cache.ReadCleanReq_accesses::.switch_cpus.inst        11032                       # number of ReadCleanReq accesses(hits+misses)
system.cpu.l2cache.ReadCleanReq_accesses::total        11032                       # number of ReadCleanReq accesses(hits+misses)
system.cpu.l2cache.ReadCleanReq_avg_miss_latency::.switch_cpus.inst 109554.208829                       # average ReadCleanReq miss latency
system.cpu.l2cache.ReadCleanReq_avg_miss_latency::total 109554.208829                       # average ReadCleanReq miss latency
system.cpu.l2cache.ReadCleanReq_avg_mshr_miss_latency::.switch_cpus.inst 112377.572483                       # average ReadCleanReq mshr miss latency
system.cpu.l2cache.ReadCleanReq_avg_mshr_miss_latency::total 112377.572483                       # average ReadCleanReq mshr miss latency
system.cpu.l2cache.ReadCleanReq_hits::.switch_cpus.inst         6411                       # number of ReadCleanReq hits
system.cpu.l2cache.ReadCleanReq_hits::total         6411                       # number of ReadCleanReq hits
system.cpu.l2cache.ReadCleanReq_miss_latency::.switch_cpus.inst    506249999                       # number of ReadCleanReq miss cycles
system.cpu.l2cache.ReadCleanReq_miss_latency::total    506249999                       # number of ReadCleanReq miss cycles
system.cpu.l2cache.ReadCleanReq_miss_rate::.switch_cpus.inst     0.418872                       # miss rate for ReadCleanReq accesses
system.cpu.l2cache.ReadCleanReq_miss_rate::total     0.418872                       # miss rate for ReadCleanReq accesses
system.cpu.l2cache.ReadCleanReq_misses::.switch_cpus.inst         4621                       # number of ReadCleanReq misses
system.cpu.l2cache.ReadCleanReq_misses::total         4621                       # number of ReadCleanReq misses
system.cpu.l2cache.ReadCleanReq_mshr_hits::.switch_cpus.inst          151                       # number of ReadCleanReq MSHR hits
system.cpu.l2cache.ReadCleanReq_mshr_hits::total          151                       # number of ReadCleanReq MSHR hits
system.cpu.l2cache.ReadCleanReq_mshr_miss_latency::.switch_cpus.inst    502327749                       # number of ReadCleanReq MSHR miss cycles
system.cpu.l2cache.ReadCleanReq_mshr_miss_latency::total    502327749                       # number of ReadCleanReq MSHR miss cycles
system.cpu.l2cache.ReadCleanReq_mshr_miss_rate::.switch_cpus.inst     0.405185                       # mshr miss rate for ReadCleanReq accesses
system.cpu.l2cache.ReadCleanReq_mshr_miss_rate::total     0.405185                       # mshr miss rate for ReadCleanReq accesses
system.cpu.l2cache.ReadCleanReq_mshr_misses::.switch_cpus.inst         4470                       # number of ReadCleanReq MSHR misses
system.cpu.l2cache.ReadCleanReq_mshr_misses::total         4470                       # number of ReadCleanReq MSHR misses
system.cpu.l2cache.ReadExReq_accesses::.switch_cpus.data       745819                       # number of ReadExReq accesses(hits+misses)
system.cpu.l2cache.ReadExReq_accesses::total       745819                       # number of ReadExReq accesses(hits+misses)
system.cpu.l2cache.ReadExReq_avg_miss_latency::.switch_cpus.data 119876.815596                       # average ReadExReq miss latency
system.cpu.l2cache.ReadExReq_avg_miss_latency::total 119876.815596                       # average ReadExReq miss latency
system.cpu.l2cache.ReadExReq_avg_mshr_miss_latency::.switch_cpus.data 120426.023382                       # average ReadExReq mshr miss latency
system.cpu.l2cache.ReadExReq_avg_mshr_miss_latency::total 120426.023382                       # average ReadExReq mshr miss latency
system.cpu.l2cache.ReadExReq_hits::.switch_cpus.data       686059                       # number of ReadExReq hits
system.cpu.l2cache.ReadExReq_hits::total       686059                       # number of ReadExReq hits
system.cpu.l2cache.ReadExReq_miss_latency::.switch_cpus.data   7163838500                       # number of ReadExReq miss cycles
system.cpu.l2cache.ReadExReq_miss_latency::total   7163838500                       # number of ReadExReq miss cycles
system.cpu.l2cache.ReadExReq_miss_rate::.switch_cpus.data     0.080127                       # miss rate for ReadExReq accesses
system.cpu.l2cache.ReadExReq_miss_rate::total     0.080127                       # miss rate for ReadExReq accesses
system.cpu.l2cache.ReadExReq_misses::.switch_cpus.data        59760                       # number of ReadExReq misses
system.cpu.l2cache.ReadExReq_misses::total        59760                       # number of ReadExReq misses
system.cpu.l2cache.ReadExReq_mshr_hits::.switch_cpus.data          569                       # number of ReadExReq MSHR hits
system.cpu.l2cache.ReadExReq_mshr_hits::total          569                       # number of ReadExReq MSHR hits
system.cpu.l2cache.ReadExReq_mshr_miss_latency::.switch_cpus.data   7128136750                       # number of ReadExReq MSHR miss cycles
system.cpu.l2cache.ReadExReq_mshr_miss_latency::total   7128136750                       # number of ReadExReq MSHR miss cycles
system.cpu.l2cache.ReadExReq_mshr_miss_rate::.switch_cpus.data     0.079364                       # mshr miss rate for ReadExReq accesses
system.cpu.l2cache.ReadExReq_mshr_miss_rate::total     0.079364                       # mshr miss rate for ReadExReq accesses
system.cpu.l2cache.ReadExReq_mshr_misses::.switch_cpus.data        59191                       # number of ReadExReq MSHR misses
system.cpu.l2cache.ReadExReq_mshr_misses::total        59191                       # number of ReadExReq MSHR misses
system.cpu.l2cache.ReadSharedReq_accesses::.cpu.dcache.prefetcher      3132776                       # number of ReadSharedReq accesses(hits+misses)
system.cpu.l2cache.ReadSharedReq_accesses::.switch_cpus.dtb.walker         4816                       # number of ReadSharedReq accesses(hits+misses)
system.cpu.l2cache.ReadSharedReq_accesses::.switch_cpus.itb.walker           79                       # number of ReadSharedReq accesses(hits+misses)
system.cpu.l2cache.ReadSharedReq_accesses::.switch_cpus.data       171217                       # number of ReadSharedReq accesses(hits+misses)
system.cpu.l2cache.ReadSharedReq_accesses::total      3308888                       # number of ReadSharedReq accesses(hits+misses)
system.cpu.l2cache.ReadSharedReq_avg_miss_latency::.cpu.dcache.prefetcher 89016.424804                       # average ReadSharedReq miss latency
system.cpu.l2cache.ReadSharedReq_avg_miss_latency::.switch_cpus.dtb.walker 82096.723044                       # average ReadSharedReq miss latency
system.cpu.l2cache.ReadSharedReq_avg_miss_latency::.switch_cpus.itb.walker 83557.692308                       # average ReadSharedReq miss latency
system.cpu.l2cache.ReadSharedReq_avg_miss_latency::.switch_cpus.data 125073.111251                       # average ReadSharedReq miss latency
system.cpu.l2cache.ReadSharedReq_avg_miss_latency::total 89674.340458                       # average ReadSharedReq miss latency
system.cpu.l2cache.ReadSharedReq_avg_mshr_miss_latency::.cpu.dcache.prefetcher 105905.264676                       # average ReadSharedReq mshr miss latency
system.cpu.l2cache.ReadSharedReq_avg_mshr_miss_latency::.switch_cpus.dtb.walker 82096.723044                       # average ReadSharedReq mshr miss latency
system.cpu.l2cache.ReadSharedReq_avg_mshr_miss_latency::.switch_cpus.itb.walker 83557.692308                       # average ReadSharedReq mshr miss latency
system.cpu.l2cache.ReadSharedReq_avg_mshr_miss_latency::.switch_cpus.data 129689.812805                       # average ReadSharedReq mshr miss latency
system.cpu.l2cache.ReadSharedReq_avg_mshr_miss_latency::total 106661.555279                       # average ReadSharedReq mshr miss latency
system.cpu.l2cache.ReadSharedReq_hits::.cpu.dcache.prefetcher      1300910                       # number of ReadSharedReq hits
system.cpu.l2cache.ReadSharedReq_hits::.switch_cpus.dtb.walker         3870                       # number of ReadSharedReq hits
system.cpu.l2cache.ReadSharedReq_hits::.switch_cpus.itb.walker           40                       # number of ReadSharedReq hits
system.cpu.l2cache.ReadSharedReq_hits::.switch_cpus.data       136961                       # number of ReadSharedReq hits
system.cpu.l2cache.ReadSharedReq_hits::total      1441781                       # number of ReadSharedReq hits
system.cpu.l2cache.ReadSharedReq_miss_latency::.cpu.dcache.prefetcher 163066162040                       # number of ReadSharedReq miss cycles
system.cpu.l2cache.ReadSharedReq_miss_latency::.switch_cpus.dtb.walker     77663500                       # number of ReadSharedReq miss cycles
system.cpu.l2cache.ReadSharedReq_miss_latency::.switch_cpus.itb.walker      3258750                       # number of ReadSharedReq miss cycles
system.cpu.l2cache.ReadSharedReq_miss_latency::.switch_cpus.data   4284504499                       # number of ReadSharedReq miss cycles
system.cpu.l2cache.ReadSharedReq_miss_latency::total 167431588789                       # number of ReadSharedReq miss cycles
system.cpu.l2cache.ReadSharedReq_miss_rate::.cpu.dcache.prefetcher     0.584742                       # miss rate for ReadSharedReq accesses
system.cpu.l2cache.ReadSharedReq_miss_rate::.switch_cpus.dtb.walker     0.196429                       # miss rate for ReadSharedReq accesses
system.cpu.l2cache.ReadSharedReq_miss_rate::.switch_cpus.itb.walker     0.493671                       # miss rate for ReadSharedReq accesses
system.cpu.l2cache.ReadSharedReq_miss_rate::.switch_cpus.data     0.200074                       # miss rate for ReadSharedReq accesses
system.cpu.l2cache.ReadSharedReq_miss_rate::total     0.564270                       # miss rate for ReadSharedReq accesses
system.cpu.l2cache.ReadSharedReq_misses::.cpu.dcache.prefetcher      1831866                       # number of ReadSharedReq misses
system.cpu.l2cache.ReadSharedReq_misses::.switch_cpus.dtb.walker          946                       # number of ReadSharedReq misses
system.cpu.l2cache.ReadSharedReq_misses::.switch_cpus.itb.walker           39                       # number of ReadSharedReq misses
system.cpu.l2cache.ReadSharedReq_misses::.switch_cpus.data        34256                       # number of ReadSharedReq misses
system.cpu.l2cache.ReadSharedReq_misses::total      1867107                       # number of ReadSharedReq misses
system.cpu.l2cache.ReadSharedReq_mshr_hits::.cpu.dcache.prefetcher       866520                       # number of ReadSharedReq MSHR hits
system.cpu.l2cache.ReadSharedReq_mshr_hits::.switch_cpus.data         1504                       # number of ReadSharedReq MSHR hits
system.cpu.l2cache.ReadSharedReq_mshr_hits::total       868024                       # number of ReadSharedReq MSHR hits
system.cpu.l2cache.ReadSharedReq_mshr_miss_latency::.cpu.dcache.prefetcher 102235223634                       # number of ReadSharedReq MSHR miss cycles
system.cpu.l2cache.ReadSharedReq_mshr_miss_latency::.switch_cpus.dtb.walker     77663500                       # number of ReadSharedReq MSHR miss cycles
system.cpu.l2cache.ReadSharedReq_mshr_miss_latency::.switch_cpus.itb.walker      3258750                       # number of ReadSharedReq MSHR miss cycles
system.cpu.l2cache.ReadSharedReq_mshr_miss_latency::.switch_cpus.data   4247600749                       # number of ReadSharedReq MSHR miss cycles
system.cpu.l2cache.ReadSharedReq_mshr_miss_latency::total 106563746633                       # number of ReadSharedReq MSHR miss cycles
system.cpu.l2cache.ReadSharedReq_mshr_miss_rate::.cpu.dcache.prefetcher     0.308144                       # mshr miss rate for ReadSharedReq accesses
system.cpu.l2cache.ReadSharedReq_mshr_miss_rate::.switch_cpus.dtb.walker     0.196429                       # mshr miss rate for ReadSharedReq accesses
system.cpu.l2cache.ReadSharedReq_mshr_miss_rate::.switch_cpus.itb.walker     0.493671                       # mshr miss rate for ReadSharedReq accesses
system.cpu.l2cache.ReadSharedReq_mshr_miss_rate::.switch_cpus.data     0.191289                       # mshr miss rate for ReadSharedReq accesses
system.cpu.l2cache.ReadSharedReq_mshr_miss_rate::total     0.301939                       # mshr miss rate for ReadSharedReq accesses
system.cpu.l2cache.ReadSharedReq_mshr_misses::.cpu.dcache.prefetcher       965346                       # number of ReadSharedReq MSHR misses
system.cpu.l2cache.ReadSharedReq_mshr_misses::.switch_cpus.dtb.walker          946                       # number of ReadSharedReq MSHR misses
system.cpu.l2cache.ReadSharedReq_mshr_misses::.switch_cpus.itb.walker           39                       # number of ReadSharedReq MSHR misses
system.cpu.l2cache.ReadSharedReq_mshr_misses::.switch_cpus.data        32752                       # number of ReadSharedReq MSHR misses
system.cpu.l2cache.ReadSharedReq_mshr_misses::total       999083                       # number of ReadSharedReq MSHR misses
system.cpu.l2cache.UpgradeReq_accesses::.switch_cpus.data          859                       # number of UpgradeReq accesses(hits+misses)
system.cpu.l2cache.UpgradeReq_accesses::total          859                       # number of UpgradeReq accesses(hits+misses)
system.cpu.l2cache.UpgradeReq_avg_miss_latency::.switch_cpus.data 15427.272727                       # average UpgradeReq miss latency
system.cpu.l2cache.UpgradeReq_avg_miss_latency::total 15427.272727                       # average UpgradeReq miss latency
system.cpu.l2cache.UpgradeReq_avg_mshr_miss_latency::.switch_cpus.data 18140.909091                       # average UpgradeReq mshr miss latency
system.cpu.l2cache.UpgradeReq_avg_mshr_miss_latency::total 18140.909091                       # average UpgradeReq mshr miss latency
system.cpu.l2cache.UpgradeReq_hits::.switch_cpus.data          804                       # number of UpgradeReq hits
system.cpu.l2cache.UpgradeReq_hits::total          804                       # number of UpgradeReq hits
system.cpu.l2cache.UpgradeReq_miss_latency::.switch_cpus.data       848500                       # number of UpgradeReq miss cycles
system.cpu.l2cache.UpgradeReq_miss_latency::total       848500                       # number of UpgradeReq miss cycles
system.cpu.l2cache.UpgradeReq_miss_rate::.switch_cpus.data     0.064028                       # miss rate for UpgradeReq accesses
system.cpu.l2cache.UpgradeReq_miss_rate::total     0.064028                       # miss rate for UpgradeReq accesses
system.cpu.l2cache.UpgradeReq_misses::.switch_cpus.data           55                       # number of UpgradeReq misses
system.cpu.l2cache.UpgradeReq_misses::total           55                       # number of UpgradeReq misses
system.cpu.l2cache.UpgradeReq_mshr_miss_latency::.switch_cpus.data       997750                       # number of UpgradeReq MSHR miss cycles
system.cpu.l2cache.UpgradeReq_mshr_miss_latency::total       997750                       # number of UpgradeReq MSHR miss cycles
system.cpu.l2cache.UpgradeReq_mshr_miss_rate::.switch_cpus.data     0.064028                       # mshr miss rate for UpgradeReq accesses
system.cpu.l2cache.UpgradeReq_mshr_miss_rate::total     0.064028                       # mshr miss rate for UpgradeReq accesses
system.cpu.l2cache.UpgradeReq_mshr_misses::.switch_cpus.data           55                       # number of UpgradeReq MSHR misses
system.cpu.l2cache.UpgradeReq_mshr_misses::total           55                       # number of UpgradeReq MSHR misses
system.cpu.l2cache.WriteReq_mshr_uncacheable::.switch_cpus.data           90                       # number of WriteReq MSHR uncacheable
system.cpu.l2cache.WriteReq_mshr_uncacheable::total           90                       # number of WriteReq MSHR uncacheable
system.cpu.l2cache.WritebackClean_accesses::.writebacks        10520                       # number of WritebackClean accesses(hits+misses)
system.cpu.l2cache.WritebackClean_accesses::total        10520                       # number of WritebackClean accesses(hits+misses)
system.cpu.l2cache.WritebackClean_hits::.writebacks        10520                       # number of WritebackClean hits
system.cpu.l2cache.WritebackClean_hits::total        10520                       # number of WritebackClean hits
system.cpu.l2cache.WritebackDirty_accesses::.writebacks      3218451                       # number of WritebackDirty accesses(hits+misses)
system.cpu.l2cache.WritebackDirty_accesses::total      3218451                       # number of WritebackDirty accesses(hits+misses)
system.cpu.l2cache.WritebackDirty_hits::.writebacks      3218451                       # number of WritebackDirty hits
system.cpu.l2cache.WritebackDirty_hits::total      3218451                       # number of WritebackDirty hits
system.cpu.l2cache.avg_blocked_cycles::no_mshrs    26.166667                       # average number of cycles each access was blocked
system.cpu.l2cache.avg_blocked_cycles::no_targets          nan                       # average number of cycles each access was blocked
system.cpu.l2cache.blocked::no_mshrs                6                       # number of cycles access was blocked
system.cpu.l2cache.blocked::no_targets              0                       # number of cycles access was blocked
system.cpu.l2cache.blocked_cycles::no_mshrs          157                       # number of cycles access was blocked
system.cpu.l2cache.blocked_cycles::no_targets            0                       # number of cycles access was blocked
system.cpu.l2cache.demand_accesses::.cpu.dcache.prefetcher      3132776                       # number of demand (read+write) accesses
system.cpu.l2cache.demand_accesses::.switch_cpus.dtb.walker         4816                       # number of demand (read+write) accesses
system.cpu.l2cache.demand_accesses::.switch_cpus.itb.walker           79                       # number of demand (read+write) accesses
system.cpu.l2cache.demand_accesses::.switch_cpus.inst        11032                       # number of demand (read+write) accesses
system.cpu.l2cache.demand_accesses::.switch_cpus.data       917036                       # number of demand (read+write) accesses
system.cpu.l2cache.demand_accesses::total      4065739                       # number of demand (read+write) accesses
system.cpu.l2cache.demand_avg_miss_latency::.cpu.dcache.prefetcher 89016.424804                       # average overall miss latency
system.cpu.l2cache.demand_avg_miss_latency::.switch_cpus.dtb.walker 82096.723044                       # average overall miss latency
system.cpu.l2cache.demand_avg_miss_latency::.switch_cpus.itb.walker 83557.692308                       # average overall miss latency
system.cpu.l2cache.demand_avg_miss_latency::.switch_cpus.inst 109554.208829                       # average overall miss latency
system.cpu.l2cache.demand_avg_miss_latency::.switch_cpus.data 121770.156133                       # average overall miss latency
system.cpu.l2cache.demand_avg_miss_latency::total 90656.363015                       # average overall miss latency
system.cpu.l2cache.demand_avg_mshr_miss_latency::.cpu.dcache.prefetcher 105905.264676                       # average overall mshr miss latency
system.cpu.l2cache.demand_avg_mshr_miss_latency::.switch_cpus.dtb.walker 82096.723044                       # average overall mshr miss latency
system.cpu.l2cache.demand_avg_mshr_miss_latency::.switch_cpus.itb.walker 83557.692308                       # average overall mshr miss latency
system.cpu.l2cache.demand_avg_mshr_miss_latency::.switch_cpus.inst 112377.572483                       # average overall mshr miss latency
system.cpu.l2cache.demand_avg_mshr_miss_latency::.switch_cpus.data 123725.976953                       # average overall mshr miss latency
system.cpu.l2cache.demand_avg_mshr_miss_latency::total 107452.228507                       # average overall mshr miss latency
system.cpu.l2cache.demand_hits::.cpu.dcache.prefetcher      1300910                       # number of demand (read+write) hits
system.cpu.l2cache.demand_hits::.switch_cpus.dtb.walker         3870                       # number of demand (read+write) hits
system.cpu.l2cache.demand_hits::.switch_cpus.itb.walker           40                       # number of demand (read+write) hits
system.cpu.l2cache.demand_hits::.switch_cpus.inst         6411                       # number of demand (read+write) hits
[...]
system.switch_cpus.iq.issued_per_cycle::0    288158004     80.28%     80.28% # Number of insts issued each cycle
system.switch_cpus.iq.issued_per_cycle::1     28083814      7.82%     88.10% # Number of insts issued each cycle
system.switch_cpus.iq.issued_per_cycle::2     15042059      4.19%     92.29% # Number of insts issued each cycle
system.switch_cpus.iq.issued_per_cycle::3     11543672      3.22%     95.51% # Number of insts issued each cycle
system.switch_cpus.iq.issued_per_cycle::4      8760400      2.44%     97.95% # Number of insts issued each cycle
system.switch_cpus.iq.issued_per_cycle::5      5469837      1.52%     99.47% # Number of insts issued each cycle
system.switch_cpus.iq.issued_per_cycle::6      1531391      0.43%     99.90% # Number of insts issued each cycle
system.switch_cpus.iq.issued_per_cycle::7       119037      0.03%     99.93% # Number of insts issued each cycle
system.switch_cpus.iq.issued_per_cycle::8       239416      0.07%    100.00% # Number of insts issued each cycle
system.switch_cpus.iq.issued_per_cycle::overflows            0      0.00%    100.00% # Number of insts issued each cycle
system.switch_cpus.iq.issued_per_cycle::min_value            0                       # Number of insts issued each cycle
system.switch_cpus.iq.issued_per_cycle::max_value            8                       # Number of insts issued each cycle
system.switch_cpus.iq.issued_per_cycle::total    358947630                       # Number of insts issued each cycle
system.switch_cpus.iq.rate                   0.464231                       # Inst issue rate
system.switch_cpus.iq.vec_alu_accesses              0                       # Number of vector alu accesses
system.switch_cpus.iq.vec_inst_queue_reads            0                       # Number of vector instruction queue reads
system.switch_cpus.iq.vec_inst_queue_wakeup_accesses            0                       # Number of vector instruction queue wakeup accesses
system.switch_cpus.iq.vec_inst_queue_writes            0                       # Number of vector instruction queue writes
system.switch_cpus.itb.rdAccesses                   0                       # TLB accesses on read requests
system.switch_cpus.itb.rdMisses                     0                       # TLB misses on read requests
system.switch_cpus.itb.wrAccesses             8744893                       # TLB accesses on write requests
system.switch_cpus.itb.wrMisses                   113                       # TLB misses on write requests
system.switch_cpus.kern.inst.arm                    0                       # number of arm instructions executed
system.switch_cpus.kern.inst.quiesce                0                       # number of quiesce instructions executed
system.switch_cpus.memDep0.conflictingLoads       176021                       # Number of conflicting loads.
system.switch_cpus.memDep0.conflictingStores        19504                       # Number of conflicting stores.
system.switch_cpus.memDep0.insertedLoads     19908373                       # Number of loads inserted to the mem dependence unit.
system.switch_cpus.memDep0.insertedStores     38071766                       # Number of stores inserted to the mem dependence unit.
system.switch_cpus.misc_regfile_reads        95346694                       # number of misc regfile reads
system.switch_cpus.misc_regfile_writes           6730                       # number of misc regfile writes
system.switch_cpus.numCycles                360007552                       # number of cpu cycles simulated
system.switch_cpus.numWorkItemsCompleted            0                       # number of work items this cpu completed
system.switch_cpus.numWorkItemsStarted              0                       # number of work items this cpu started
system.switch_cpus.rename.BlockCycles       112485086                       # Number of cycles rename is blocking
system.switch_cpus.rename.CommittedMaps     162380477                       # Number of HB maps that are committed
system.switch_cpus.rename.IQFullEvents         865680                       # Number of times rename has blocked due to IQ full
system.switch_cpus.rename.IdleCycles         14750582                       # Number of cycles rename is idle
system.switch_cpus.rename.ROBFullEvents         42877                       # Number of times rename has blocked due to ROB full
system.switch_cpus.rename.RenameLookups     443080582                       # Number of register rename lookups that rename has made
system.switch_cpus.rename.RenamedInsts      167808227                       # Number of instructions processed by rename
system.switch_cpus.rename.RenamedOperands    164033933                       # Number of destination operands rename has renamed
system.switch_cpus.rename.RunCycles          14539130                       # Number of cycles rename is running
system.switch_cpus.rename.SQFullEvents      209447013                       # Number of times rename has blocked due to SQ full
system.switch_cpus.rename.SquashCycles          90795                       # Number of cycles rename is squashing
system.switch_cpus.rename.UnblockCycles     214116908                       # Number of cycles rename is unblocking
system.switch_cpus.rename.UndoneMaps          1653445                       # Number of HB maps that are undone due to squashing
system.switch_cpus.rename.fp_rename_lookups          116                       # Number of floating rename lookups
system.switch_cpus.rename.int_rename_lookups    250186819                       # Number of integer rename lookups
system.switch_cpus.rename.serializeStallCycles      2965125                       # count of cycles rename stalled for serializing inst
system.switch_cpus.rename.serializingInsts        38395                       # count of serializing insts renamed
system.switch_cpus.rename.skidInsts         118527201                       # count of insts added to the skid buffer
system.switch_cpus.rename.tempSerializingInsts        68025                       # count of temporary serializing insts renamed
system.switch_cpus.rob.rob_reads            524554933                       # The number of ROB reads
system.switch_cpus.rob.rob_writes           335252093                       # The number of ROB writes
system.switch_cpus.timesIdled                    5482                       # Number of times that the entire CPU went into an idle state and unscheduled itself
system.tol3bus.pkt_count_system.cpu.l2cache.mem_side::system.l3.cpu_side     12216297                       # Packet count per connected master and slave (bytes)
system.tol3bus.pkt_size_system.cpu.l2cache.mem_side::system.l3.cpu_side    466681640                       # Cumulative packet size per connected master and slave (bytes)
system.tol3bus.reqLayer0.occupancy         3692550224                       # Layer occupancy (ticks)
system.tol3bus.reqLayer0.utilization              4.1                       # Layer utilization (%)
system.tol3bus.respLayer0.occupancy        3809370563                       # Layer occupancy (ticks)
system.tol3bus.respLayer0.utilization             4.2                       # Layer utilization (%)
system.tol3bus.snoopTraffic                 203269632                       # Total snoop traffic (bytes)
system.tol3bus.snoop_fanout::samples         13724692                       # Request fanout histogram
system.tol3bus.snoop_fanout::mean            0.001634                       # Request fanout histogram
system.tol3bus.snoop_fanout::stdev           0.040394                       # Request fanout histogram
system.tol3bus.snoop_fanout::underflows             0      0.00%      0.00% # Request fanout histogram
system.tol3bus.snoop_fanout::0               13702261     99.84%     99.84% # Request fanout histogram
system.tol3bus.snoop_fanout::1                  22431      0.16%    100.00% # Request fanout histogram
system.tol3bus.snoop_fanout::overflows              0      0.00%    100.00% # Request fanout histogram
system.tol3bus.snoop_fanout::min_value              0                       # Request fanout histogram
system.tol3bus.snoop_fanout::max_value              1                       # Request fanout histogram
system.tol3bus.snoop_fanout::total           13724692                       # Request fanout histogram
system.tol3bus.snoop_filter.hit_multi_requests            0                       # Number of requests hitting in the snoop filter with multiple (>1) holders of the requested data.
system.tol3bus.snoop_filter.hit_multi_snoops            0                       # Number of snoops hitting in the snoop filter with multiple (>1) holders of the requested data.
system.tol3bus.snoop_filter.hit_single_requests      4069086                       # Number of requests hitting in the snoop filter with a single holder of the requested data.
system.tol3bus.snoop_filter.hit_single_snoops        22431                       # Number of snoops hitting in the snoop filter with a single holder of the requested data.
system.tol3bus.snoop_filter.tot_requests      8142451                       # Total number of requests made to the snoop filter.
system.tol3bus.snoop_filter.tot_snoops          22431                       # Total number of snoops made to the snoop filter.
system.tol3bus.snoops                         9650934                       # Total snoops (count)
system.tol3bus.trans_dist::ReadResp           4014420                       # Transaction distribution
system.tol3bus.trans_dist::WriteReq                90                       # Transaction distribution
system.tol3bus.trans_dist::WriteResp               90                       # Transaction distribution
system.tol3bus.trans_dist::WritebackDirty      6394372                       # Transaction distribution
system.tol3bus.trans_dist::CleanEvict         2538303                       # Transaction distribution
system.tol3bus.trans_dist::HardPFReq          4787042                       # Transaction distribution
system.tol3bus.trans_dist::UpgradeReq              55                       # Transaction distribution
system.tol3bus.trans_dist::UpgradeResp             55                       # Transaction distribution
system.tol3bus.trans_dist::ReadExReq            59191                       # Transaction distribution
system.tol3bus.trans_dist::ReadExResp           59191                       # Transaction distribution
system.tol3bus.trans_dist::ReadSharedReq      4014422                       # Transaction distribution
system.bridge.pwrStateResidencyTicks::UNDEFINED 807358657117250                       # Cumulative time (in ticks) in various power states
system.voltage_domain.voltage                       1                       # Voltage in Volts
system.membus.pwrStateResidencyTicks::UNDEFINED 807358657117250                       # Cumulative time (in ticks) in various power states
system.membus.badaddr_responder.pwrStateResidencyTicks::UNDEFINED 807358657117250                       # Cumulative time (in ticks) in various power states
system.apicbridge.pwrStateResidencyTicks::UNDEFINED 807358657117250                       # Cumulative time (in ticks) in various power states
system.tol3bus.pwrStateResidencyTicks::UNDEFINED 807358657117250                       # Cumulative time (in ticks) in various power states
system.switch_cpus.pwrStateResidencyTicks::OFF  90001898000                       # Cumulative time (in ticks) in various power states
system.switch_cpus.dtb.walker.pwrStateResidencyTicks::UNDEFINED 807358657117250                       # Cumulative time (in ticks) in various power states
system.switch_cpus.itb.walker.pwrStateResidencyTicks::UNDEFINED 807358657117250                       # Cumulative time (in ticks) in various power states
system.clk_domain.clock                          1000                       # Clock period in ticks
system.pc.fake_com_4.pwrStateResidencyTicks::UNDEFINED 807358657117250                       # Cumulative time (in ticks) in various power states
system.pc.fake_com_2.pwrStateResidencyTicks::UNDEFINED 807358657117250                       # Cumulative time (in ticks) in various power states
system.pc.fake_com_3.pwrStateResidencyTicks::UNDEFINED 807358657117250                       # Cumulative time (in ticks) in various power states
system.pc.south_bridge.io_apic.pwrStateResidencyTicks::UNDEFINED 807358657117250                       # Cumulative time (in ticks) in various power states
system.pc.south_bridge.pic1.pwrStateResidencyTicks::UNDEFINED 807358657117250                       # Cumulative time (in ticks) in various power states
system.pc.south_bridge.pic2.pwrStateResidencyTicks::UNDEFINED 807358657117250                       # Cumulative time (in ticks) in various power states
system.pc.south_bridge.dma1.pwrStateResidencyTicks::UNDEFINED 807358657117250                       # Cumulative time (in ticks) in various power states
system.pc.south_bridge.speaker.pwrStateResidencyTicks::UNDEFINED 807358657117250                       # Cumulative time (in ticks) in various power states
system.pc.south_bridge.keyboard.pwrStateResidencyTicks::UNDEFINED 807358657117250                       # Cumulative time (in ticks) in various power states
system.pc.south_bridge.ide.pwrStateResidencyTicks::UNDEFINED 807358657117250                       # Cumulative time (in ticks) in various power states
system.pc.south_bridge.pit.pwrStateResidencyTicks::UNDEFINED 807358657117250                       # Cumulative time (in ticks) in various power states
system.pc.south_bridge.cmos.pwrStateResidencyTicks::UNDEFINED 807358657117250                       # Cumulative time (in ticks) in various power states
system.pc.i_dont_exist2.pwrStateResidencyTicks::UNDEFINED 807358657117250                       # Cumulative time (in ticks) in various power states
system.pc.i_dont_exist1.pwrStateResidencyTicks::UNDEFINED 807358657117250                       # Cumulative time (in ticks) in various power states
system.pc.com_1.pwrStateResidencyTicks::UNDEFINED 807358657117250                       # Cumulative time (in ticks) in various power states
system.pc.fake_floppy.pwrStateResidencyTicks::UNDEFINED 807358657117250                       # Cumulative time (in ticks) in various power states
system.pc.behind_pci.pwrStateResidencyTicks::UNDEFINED 807358657117250                       # Cumulative time (in ticks) in various power states
system.pc.pci_host.pwrStateResidencyTicks::UNDEFINED 807358657117250                       # Cumulative time (in ticks) in various power states
system.cpu_clk_domain.clock                       250                       # Clock period in ticks
system.iocache.pwrStateResidencyTicks::UNDEFINED 807358657117250                       # Cumulative time (in ticks) in various power states
system.iocache.tlbTagged.walker.pwrStateResidencyTicks::UNDEFINED 807358657117250                       # Cumulative time (in ticks) in various power states
system.iocache.tags.pwrStateResidencyTicks::UNDEFINED 807358657117250                       # Cumulative time (in ticks) in various power states
system.mem_ctrls0.pwrStateResidencyTicks::UNDEFINED 807358657117250                       # Cumulative time (in ticks) in various power states
system.mem_ctrls1.pwrStateResidencyTicks::UNDEFINED 807358657117250                       # Cumulative time (in ticks) in various power states
system.l3.pwrStateResidencyTicks::UNDEFINED 807358657117250                       # Cumulative time (in ticks) in various power states
system.l3.tlbTagged.walker.pwrStateResidencyTicks::UNDEFINED 807358657117250                       # Cumulative time (in ticks) in various power states
system.l3.prefetcher.pwrStateResidencyTicks::UNDEFINED 807358657117250                       # Cumulative time (in ticks) in various power states
system.l3.tags.pwrStateResidencyTicks::UNDEFINED 807358657117250                       # Cumulative time (in ticks) in various power states
system.cpu_voltage_domain.voltage                   1                       # Voltage in Volts
system.iobus.pwrStateResidencyTicks::UNDEFINED 807358657117250                       # Cumulative time (in ticks) in various power states
system.cpu.numPwrStateTransitions                   1                       # Number of power state transitions
system.cpu.pwrStateResidencyTicks::ON           10000                       # Cumulative time (in ticks) in various power states
system.cpu.pwrStateResidencyTicks::OFF    90001888000                       # Cumulative time (in ticks) in various power states
system.cpu.icache.pwrStateResidencyTicks::UNDEFINED 807358657117250                       # Cumulative time (in ticks) in various power states
system.cpu.icache.tlbTagged.walker.pwrStateResidencyTicks::UNDEFINED 807358657117250                       # Cumulative time (in ticks) in various power states
system.cpu.icache.tags.pwrStateResidencyTicks::UNDEFINED 807358657117250                       # Cumulative time (in ticks) in various power states
system.cpu.dtb.walker.pwrStateResidencyTicks::UNDEFINED 807358657117250                       # Cumulative time (in ticks) in various power states
system.cpu.interrupts.pwrStateResidencyTicks::UNDEFINED 807358657117250                       # Cumulative time (in ticks) in various power states
system.cpu.interrupts.clk_domain.clock           4000                       # Clock period in ticks
system.cpu.itb_walker_cache.pwrStateResidencyTicks::UNDEFINED 807358657117250                       # Cumulative time (in ticks) in various power states
system.cpu.itb_walker_cache.tlbTagged.walker.pwrStateResidencyTicks::UNDEFINED 807358657117250                       # Cumulative time (in ticks) in various power states
system.cpu.itb_walker_cache.tags.pwrStateResidencyTicks::UNDEFINED 807358657117250                       # Cumulative time (in ticks) in various power states
system.cpu.itb.walker.pwrStateResidencyTicks::UNDEFINED 807358657117250                       # Cumulative time (in ticks) in various power states
system.cpu.dtb_walker_cache.pwrStateResidencyTicks::UNDEFINED 807358657117250                       # Cumulative time (in ticks) in various power states
system.cpu.dtb_walker_cache.tlbTagged.walker.pwrStateResidencyTicks::UNDEFINED 807358657117250                       # Cumulative time (in ticks) in various power states
system.cpu.dtb_walker_cache.tags.pwrStateResidencyTicks::UNDEFINED 807358657117250                       # Cumulative time (in ticks) in various power states
system.cpu.dcache.pwrStateResidencyTicks::UNDEFINED 807358657117250                       # Cumulative time (in ticks) in various power states
system.cpu.dcache.tlbTagged.walker.pwrStateResidencyTicks::UNDEFINED 807358657117250                       # Cumulative time (in ticks) in various power states
system.cpu.dcache.prefetcher.pwrStateResidencyTicks::UNDEFINED 807358657117250                       # Cumulative time (in ticks) in various power states
system.cpu.dcache.tags.pwrStateResidencyTicks::UNDEFINED 807358657117250                       # Cumulative time (in ticks) in various power states
system.cpu.l2cache.pwrStateResidencyTicks::UNDEFINED 807358657117250                       # Cumulative time (in ticks) in various power states
system.cpu.l2cache.tlbTagged.walker.pwrStateResidencyTicks::UNDEFINED 807358657117250                       # Cumulative time (in ticks) in various power states
system.cpu.l2cache.prefetcher.pwrStateResidencyTicks::UNDEFINED 807358657117250                       # Cumulative time (in ticks) in various power states
system.cpu.l2cache.tags.pwrStateResidencyTicks::UNDEFINED 807358657117250                       # Cumulative time (in ticks) in various power states
system.cpu.toL2Bus.pwrStateResidencyTicks::UNDEFINED 807358657117250                       # Cumulative time (in ticks) in various power states

---------- End Simulation Statistics   ----------
