
---------- Begin Simulation Statistics ----------
final_tick                               807360513385750                       # Number of ticks from beginning of simulation (restored from checkpoints and never reset)
host_inst_rate                                  26675                       # Simulator instruction rate (inst/s)
host_mem_usage                               17067188                       # Number of bytes of host memory used
host_op_rate                                    44371                       # Simulator op (including micro ops) rate (op/s)
host_seconds                                  3748.80                       # Real time elapsed on the host
host_tick_rate                               24503343                       # Simulator tick rate (ticks/s)
sim_freq                                 1000000000000                       # Frequency of simulated ticks
sim_insts                                   100000000                       # Number of instructions simulated
sim_ops                                     166338809                       # Number of ops (including micro ops) simulated
sim_seconds                                  0.091858                       # Number of seconds simulated
sim_ticks                                 91858166500                       # Number of ticks simulated
system.cpu.committedInsts                           0                       # Number of instructions committed
system.cpu.dcache.DataMeta::0                       0                       # Distribution of access
system.cpu.dcache.DataMeta::1                       0                       # Distribution of access
system.cpu.dcache.DataMeta::2                       0                       # Distribution of access
system.cpu.dcache.DataMeta::3                       0                       # Distribution of access
system.cpu.dcache.HardPFReq_avg_mshr_miss_latency::.cpu.dcache.prefetcher 69602.332902                       # average HardPFReq mshr miss latency
system.cpu.dcache.HardPFReq_avg_mshr_miss_latency::total 69602.332902                       # average HardPFReq mshr miss latency
system.cpu.dcache.HardPFReq_mshr_miss_latency::.cpu.dcache.prefetcher 216543715622                       # number of HardPFReq MSHR miss cycles
system.cpu.dcache.HardPFReq_mshr_miss_latency::total 216543715622                       # number of HardPFReq MSHR miss cycles
system.cpu.dcache.HardPFReq_mshr_miss_rate::.cpu.dcache.prefetcher          inf                       # mshr miss rate for HardPFReq accesses
system.cpu.dcache.HardPFReq_mshr_miss_rate::total          inf                       # mshr miss rate for HardPFReq accesses
system.cpu.dcache.HardPFReq_mshr_misses::.cpu.dcache.prefetcher      3111156                       # number of HardPFReq MSHR misses
system.cpu.dcache.HardPFReq_mshr_misses::total      3111156                       # number of HardPFReq MSHR misses
system.cpu.dcache.ReadReq_accesses::.switch_cpus.data     13381332                       # number of ReadReq accesses(hits+misses)
system.cpu.dcache.ReadReq_accesses::total     13381332                       # number of ReadReq accesses(hits+misses)
system.cpu.dcache.ReadReq_avg_miss_latency::.switch_cpus.data 47257.544468                       # average ReadReq miss latency
system.cpu.dcache.ReadReq_avg_miss_latency::total 47257.544468                       # average ReadReq miss latency
system.cpu.dcache.ReadReq_avg_mshr_miss_latency::.switch_cpus.data 25259.737587                       # average ReadReq mshr miss latency
system.cpu.dcache.ReadReq_avg_mshr_miss_latency::total 25259.737587                       # average ReadReq mshr miss latency
system.cpu.dcache.ReadReq_hits::.switch_cpus.data     11010025                       # number of ReadReq hits
system.cpu.dcache.ReadReq_hits::total        11010025                       # number of ReadReq hits
system.cpu.dcache.ReadReq_miss_latency::.switch_cpus.data 112062146000                       # number of ReadReq miss cycles
system.cpu.dcache.ReadReq_miss_latency::total 112062146000                       # number of ReadReq miss cycles
system.cpu.dcache.ReadReq_miss_rate::.switch_cpus.data     0.177210                       # miss rate for ReadReq accesses
system.cpu.dcache.ReadReq_miss_rate::total     0.177210                       # miss rate for ReadReq accesses
system.cpu.dcache.ReadReq_misses::.switch_cpus.data      2371307                       # number of ReadReq misses
system.cpu.dcache.ReadReq_misses::total       2371307                       # number of ReadReq misses
system.cpu.dcache.ReadReq_mshr_hits::.switch_cpus.data      2197573                       # number of ReadReq MSHR hits
system.cpu.dcache.ReadReq_mshr_hits::total      2197573                       # number of ReadReq MSHR hits
system.cpu.dcache.ReadReq_mshr_miss_latency::.switch_cpus.data   4388475250                       # number of ReadReq MSHR miss cycles
system.cpu.dcache.ReadReq_mshr_miss_latency::total   4388475250                       # number of ReadReq MSHR miss cycles
system.cpu.dcache.ReadReq_mshr_miss_rate::.switch_cpus.data     0.012983                       # mshr miss rate for ReadReq accesses
system.cpu.dcache.ReadReq_mshr_miss_rate::total     0.012983                       # mshr miss rate for ReadReq accesses
system.cpu.dcache.ReadReq_mshr_misses::.switch_cpus.data       173734                       # number of ReadReq MSHR misses
system.cpu.dcache.ReadReq_mshr_misses::total       173734                       # number of ReadReq MSHR misses
system.cpu.dcache.SoftPFReq_accesses::.switch_cpus.data           52                       # number of SoftPFReq accesses(hits+misses)
system.cpu.dcache.SoftPFReq_accesses::total           52                       # number of SoftPFReq accesses(hits+misses)
system.cpu.dcache.SoftPFReq_avg_mshr_miss_latency::.switch_cpus.data 84666.666667                       # average SoftPFReq mshr miss latency
system.cpu.dcache.SoftPFReq_avg_mshr_miss_latency::total 84666.666667                       # average SoftPFReq mshr miss latency
system.cpu.dcache.SoftPFReq_hits::.switch_cpus.data           10                       # number of SoftPFReq hits
system.cpu.dcache.SoftPFReq_hits::total            10                       # number of SoftPFReq hits
system.cpu.dcache.SoftPFReq_miss_rate::.switch_cpus.data     0.807692                       # miss rate for SoftPFReq accesses
system.cpu.dcache.SoftPFReq_miss_rate::total     0.807692                       # miss rate for SoftPFReq accesses
system.cpu.dcache.SoftPFReq_misses::.switch_cpus.data           42                       # number of SoftPFReq misses
system.cpu.dcache.SoftPFReq_misses::total           42                       # number of SoftPFReq misses
system.cpu.dcache.SoftPFReq_mshr_miss_latency::.switch_cpus.data      3556000                       # number of SoftPFReq MSHR miss cycles
system.cpu.dcache.SoftPFReq_mshr_miss_latency::total      3556000                       # number of SoftPFReq MSHR miss cycles
system.cpu.dcache.SoftPFReq_mshr_miss_rate::.switch_cpus.data     0.807692                       # mshr miss rate for SoftPFReq accesses
system.cpu.dcache.SoftPFReq_mshr_miss_rate::total     0.807692                       # mshr miss rate for SoftPFReq accesses
system.cpu.dcache.SoftPFReq_mshr_misses::.switch_cpus.data           42                       # number of SoftPFReq MSHR misses
system.cpu.dcache.SoftPFReq_mshr_misses::total           42                       # number of SoftPFReq MSHR misses
system.cpu.dcache.WriteReq_accesses::.switch_cpus.data     37963823                       # number of WriteReq accesses(hits+misses)
system.cpu.dcache.WriteReq_accesses::total     37963823                       # number of WriteReq accesses(hits+misses)
system.cpu.dcache.WriteReq_avg_miss_latency::.switch_cpus.data 39996.815681                       # average WriteReq miss latency
system.cpu.dcache.WriteReq_avg_miss_latency::total 39996.815681                       # average WriteReq miss latency
system.cpu.dcache.WriteReq_avg_mshr_miss_latency::.switch_cpus.data 13727.532012                       # average WriteReq mshr miss latency
system.cpu.dcache.WriteReq_avg_mshr_miss_latency::total 13727.532012                       # average WriteReq mshr miss latency
system.cpu.dcache.WriteReq_hits::.switch_cpus.data     36688825                       # number of WriteReq hits
system.cpu.dcache.WriteReq_hits::total       36688825                       # number of WriteReq hits
system.cpu.dcache.WriteReq_miss_latency::.switch_cpus.data  50995860000                       # number of WriteReq miss cycles
system.cpu.dcache.WriteReq_miss_latency::total  50995860000                       # number of WriteReq miss cycles
system.cpu.dcache.WriteReq_miss_rate::.switch_cpus.data     0.033585                       # miss rate for WriteReq accesses
system.cpu.dcache.WriteReq_miss_rate::total     0.033585                       # miss rate for WriteReq accesses
system.cpu.dcache.WriteReq_misses::.switch_cpus.data      1274998                       # number of WriteReq misses
system.cpu.dcache.WriteReq_misses::total      1274998                       # number of WriteReq misses
system.cpu.dcache.WriteReq_mshr_hits::.switch_cpus.data       507328                       # number of WriteReq MSHR hits
system.cpu.dcache.WriteReq_mshr_hits::total       507328                       # number of WriteReq MSHR hits
system.cpu.dcache.WriteReq_mshr_miss_latency::.switch_cpus.data  10538214500                       # number of WriteReq MSHR miss cycles
system.cpu.dcache.WriteReq_mshr_miss_latency::total  10538214500                       # number of WriteReq MSHR miss cycles
system.cpu.dcache.WriteReq_mshr_miss_rate::.switch_cpus.data     0.020221                       # mshr miss rate for WriteReq accesses
system.cpu.dcache.WriteReq_mshr_miss_rate::total     0.020221                       # mshr miss rate for WriteReq accesses
system.cpu.dcache.WriteReq_mshr_misses::.switch_cpus.data       767670                       # number of WriteReq MSHR misses
system.cpu.dcache.WriteReq_mshr_misses::total       767670                       # number of WriteReq MSHR misses
system.cpu.dcache.WriteReq_mshr_uncacheable::.switch_cpus.data           92                       # number of WriteReq MSHR uncacheable
system.cpu.dcache.WriteReq_mshr_uncacheable::total           92                       # number of WriteReq MSHR uncacheable
system.cpu.dcache.avg_blocked_cycles::no_mshrs    49.428571                       # average number of cycles each access was blocked
system.cpu.dcache.avg_blocked_cycles::no_targets   342.250000                       # average number of cycles each access was blocked
system.cpu.dcache.blocked::no_mshrs                 7                       # number of cycles access was blocked
system.cpu.dcache.blocked::no_targets               4                       # number of cycles access was blocked
system.cpu.dcache.blocked_cycles::no_mshrs          346                       # number of cycles access was blocked
system.cpu.dcache.blocked_cycles::no_targets         1369                       # number of cycles access was blocked
system.cpu.dcache.demand_accesses::.switch_cpus.data     51345155                       # number of demand (read+write) accesses
system.cpu.dcache.demand_accesses::total     51345155                       # number of demand (read+write) accesses
system.cpu.dcache.demand_avg_miss_latency::.switch_cpus.data 44718.696324                       # average overall miss latency
system.cpu.dcache.demand_avg_miss_latency::total 44718.696324                       # average overall miss latency
system.cpu.dcache.demand_avg_mshr_miss_latency::.switch_cpus.data 15855.774726                       # average overall mshr miss latency
system.cpu.dcache.demand_avg_mshr_miss_latency::total 15855.774726                       # average overall mshr miss latency
system.cpu.dcache.demand_hits::.switch_cpus.data     47698850                       # number of demand (read+write) hits
system.cpu.dcache.demand_hits::total         47698850                       # number of demand (read+write) hits
system.cpu.dcache.demand_miss_latency::.switch_cpus.data 163058006000                       # number of demand (read+write) miss cycles
system.cpu.dcache.demand_miss_latency::total 163058006000                       # number of demand (read+write) miss cycles
system.cpu.dcache.demand_miss_rate::.switch_cpus.data     0.071016                       # miss rate for demand accesses
system.cpu.dcache.demand_miss_rate::total     0.071016                       # miss rate for demand accesses
system.cpu.dcache.demand_misses::.switch_cpus.data      3646305                       # number of demand (read+write) misses
system.cpu.dcache.demand_misses::total        3646305                       # number of demand (read+write) misses
system.cpu.dcache.demand_mshr_hits::.switch_cpus.data      2704901                       # number of demand (read+write) MSHR hits
system.cpu.dcache.demand_mshr_hits::total      2704901                       # number of demand (read+write) MSHR hits
system.cpu.dcache.demand_mshr_miss_latency::.switch_cpus.data  14926689750                       # number of demand (read+write) MSHR miss cycles
system.cpu.dcache.demand_mshr_miss_latency::total  14926689750                       # number of demand (read+write) MSHR miss cycles
system.cpu.dcache.demand_mshr_miss_rate::.switch_cpus.data     0.018335                       # mshr miss rate for demand accesses
system.cpu.dcache.demand_mshr_miss_rate::total     0.018335                       # mshr miss rate for demand accesses
system.cpu.dcache.demand_mshr_misses::.switch_cpus.data       941404                       # number of demand (read+write) MSHR misses
system.cpu.dcache.demand_mshr_misses::total       941404                       # number of demand (read+write) MSHR misses
system.cpu.dcache.overall_accesses::.switch_cpus.data     51345207                       # number of overall (read+write) accesses
system.cpu.dcache.overall_accesses::total     51345207                       # number of overall (read+write) accesses
system.cpu.dcache.overall_avg_miss_latency::.switch_cpus.data 44718.181237                       # average overall miss latency
system.cpu.dcache.overall_avg_miss_latency::total 44718.181237                       # average overall miss latency
system.cpu.dcache.overall_avg_mshr_miss_latency::.cpu.dcache.prefetcher 69602.332902                       # average overall mshr miss latency
system.cpu.dcache.overall_avg_mshr_miss_latency::.switch_cpus.data 15858.844533                       # average overall mshr miss latency
system.cpu.dcache.overall_avg_mshr_miss_latency::total 57117.368390                       # average overall mshr miss latency
system.cpu.dcache.overall_hits::.switch_cpus.data     47698860                       # number of overall hits
system.cpu.dcache.overall_hits::total        47698860                       # number of overall hits
system.cpu.dcache.overall_miss_latency::.switch_cpus.data 163058006000                       # number of overall miss cycles
system.cpu.dcache.overall_miss_latency::total 163058006000                       # number of overall miss cycles
system.cpu.dcache.overall_miss_rate::.switch_cpus.data     0.071016                       # miss rate for overall accesses
system.cpu.dcache.overall_miss_rate::total     0.071016                       # miss rate for overall accesses
system.cpu.dcache.overall_misses::.switch_cpus.data      3646347                       # number of overall misses
system.cpu.dcache.overall_misses::total       3646347                       # number of overall misses
system.cpu.dcache.overall_mshr_hits::.switch_cpus.data      2704901                       # number of overall MSHR hits
system.cpu.dcache.overall_mshr_hits::total      2704901                       # number of overall MSHR hits
system.cpu.dcache.overall_mshr_miss_latency::.cpu.dcache.prefetcher 216543715622                       # number of overall MSHR miss cycles
system.cpu.dcache.overall_mshr_miss_latency::.switch_cpus.data  14930245750                       # number of overall MSHR miss cycles
system.cpu.dcache.overall_mshr_miss_latency::total 231473961372                       # number of overall MSHR miss cycles
system.cpu.dcache.overall_mshr_miss_rate::.cpu.dcache.prefetcher          inf                       # mshr miss rate for overall accesses
system.cpu.dcache.overall_mshr_miss_rate::.switch_cpus.data     0.018336                       # mshr miss rate for overall accesses
system.cpu.dcache.overall_mshr_miss_rate::total     0.078929                       # mshr miss rate for overall accesses
system.cpu.dcache.overall_mshr_misses::.cpu.dcache.prefetcher      3111156                       # number of overall MSHR misses
system.cpu.dcache.overall_mshr_misses::.switch_cpus.data       941446                       # number of overall MSHR misses
system.cpu.dcache.overall_mshr_misses::total      4052602                       # number of overall MSHR misses
system.cpu.dcache.overall_mshr_uncacheable_misses::.switch_cpus.data           92                       # number of overall MSHR uncacheable misses
system.cpu.dcache.overall_mshr_uncacheable_misses::total           92                       # number of overall MSHR uncacheable misses
system.cpu.dcache.prefetcher.num_hwpf_issued      6564835                       # number of hwpf issued
system.cpu.dcache.prefetcher.pfBufferHit       343734                       # number of redundant prefetches already in prefetch queue
system.cpu.dcache.prefetcher.pfIdentified      7083980                       # number of prefetch candidates identified
system.cpu.dcache.prefetcher.pfInCache              0                       # number of redundant prefetches already in cache/mshr dropped
system.cpu.dcache.prefetcher.pfRemovedFull            0                       # number of prefetches dropped due to prefetch queue size
system.cpu.dcache.prefetcher.pfSpanPage        208630                       # number of prefetches that crossed the page
system.cpu.dcache.replacements                4049332                       # number of replacements
system.cpu.dcache.tags.age_task_id_blocks_1022::0          212                       # Occupied blocks per task id
system.cpu.dcache.tags.age_task_id_blocks_1022::1          467                       # Occupied blocks per task id
system.cpu.dcache.tags.age_task_id_blocks_1025::0          110                       # Occupied blocks per task id
system.cpu.dcache.tags.age_task_id_blocks_1025::1          233                       # Occupied blocks per task id
system.cpu.dcache.tags.age_task_id_blocks_1025::3            2                       # Occupied blocks per task id
system.cpu.dcache.tags.avg_refs             12.326902                       # Average number of references to valid blocks.
system.cpu.dcache.tags.data_accesses        414812012                       # Number of data accesses
system.cpu.dcache.tags.occ_blocks::.cpu.dcache.prefetcher   774.785605                       # Average occupied blocks per requestor
system.cpu.dcache.tags.occ_blocks::.switch_cpus.data   249.130606                       # Average occupied blocks per requestor
system.cpu.dcache.tags.occ_percent::.cpu.dcache.prefetcher     0.756627                       # Average percentage of cache occupancy
system.cpu.dcache.tags.occ_percent::.switch_cpus.data     0.243292                       # Average percentage of cache occupancy
system.cpu.dcache.tags.occ_percent::total     0.999918                       # Average percentage of cache occupancy
system.cpu.dcache.tags.occ_task_id_blocks::1022          679                       # Occupied blocks per task id
system.cpu.dcache.tags.occ_task_id_blocks::1025          345                       # Occupied blocks per task id
system.cpu.dcache.tags.occ_task_id_percent::1022     0.663086                       # Percentage of cache occupancy per task id
system.cpu.dcache.tags.occ_task_id_percent::1025     0.336914                       # Percentage of cache occupancy per task id
system.cpu.dcache.tags.sampled_refs           4049332                       # Sample count of references to valid blocks.
system.cpu.dcache.tags.tag_accesses         414812012                       # Number of tag accesses
system.cpu.dcache.tags.tagsinuse          1023.916211                       # Cycle average of tags in use
system.cpu.dcache.tags.total_refs            49915719                       # Total number of references to valid blocks.
system.cpu.dcache.tags.warmup_cycle      807268655811000                       # Cycle when the warmup percentage was hit.
system.cpu.dcache.tlbTagged.rdAccesses              0                       # TLB accesses on read requests
system.cpu.dcache.tlbTagged.rdMisses                0                       # TLB misses on read requests
system.cpu.dcache.tlbTagged.wrAccesses              0                       # TLB accesses on write requests
system.cpu.dcache.tlbTagged.wrMisses                0                       # TLB misses on write requests
system.cpu.dcache.unused_prefetches            129617                       # number of HardPF blocks evicted w/o reference
system.cpu.dcache.writebacks::.writebacks      3220014                       # number of writebacks
system.cpu.dcache.writebacks::total           3220014                       # number of writebacks
system.cpu.dtb.rdAccesses                           0                       # TLB accesses on read requests
system.cpu.dtb.rdMisses                             0                       # TLB misses on read requests
system.cpu.dtb.wrAccesses                           0                       # TLB accesses on write requests
system.cpu.dtb.wrMisses                             0                       # TLB misses on write requests
system.cpu.dtb_walker_cache.DataMeta::0             0                       # Distribution of access
system.cpu.dtb_walker_cache.DataMeta::1             0                       # Distribution of access
system.cpu.dtb_walker_cache.DataMeta::2             0                       # Distribution of access
system.cpu.dtb_walker_cache.DataMeta::3             0                       # Distribution of access
system.cpu.dtb_walker_cache.ReadReq_accesses::.switch_cpus.dtb.walker        23215                       # number of ReadReq accesses(hits+misses)
system.cpu.dtb_walker_cache.ReadReq_accesses::total        23215                       # number of ReadReq accesses(hits+misses)
system.cpu.dtb_walker_cache.ReadReq_avg_miss_latency::.switch_cpus.dtb.walker 17670.214883                       # average ReadReq miss latency
system.cpu.dtb_walker_cache.ReadReq_avg_miss_latency::total 17670.214883                       # average ReadReq miss latency
system.cpu.dtb_walker_cache.ReadReq_avg_mshr_miss_latency::.switch_cpus.dtb.walker 17170.214883                       # average ReadReq mshr miss latency
system.cpu.dtb_walker_cache.ReadReq_avg_mshr_miss_latency::total 17170.214883                       # average ReadReq mshr miss latency
system.cpu.dtb_walker_cache.ReadReq_hits::.switch_cpus.dtb.walker        18189                       # number of ReadReq hits
system.cpu.dtb_walker_cache.ReadReq_hits::total        18189                       # number of ReadReq hits
system.cpu.dtb_walker_cache.ReadReq_miss_latency::.switch_cpus.dtb.walker     88810500                       # number of ReadReq miss cycles
system.cpu.dtb_walker_cache.ReadReq_miss_latency::total     88810500                       # number of ReadReq miss cycles
system.cpu.dtb_walker_cache.ReadReq_miss_rate::.switch_cpus.dtb.walker     0.216498                       # miss rate for ReadReq accesses
system.cpu.dtb_walker_cache.ReadReq_miss_rate::total     0.216498                       # miss rate for ReadReq accesses
system.cpu.dtb_walker_cache.ReadReq_misses::.switch_cpus.dtb.walker         5026                       # number of ReadReq misses
system.cpu.dtb_walker_cache.ReadReq_misses::total         5026                       # number of ReadReq misses
system.cpu.dtb_walker_cache.ReadReq_mshr_miss_latency::.switch_cpus.dtb.walker     86297500                       # number of ReadReq MSHR miss cycles
system.cpu.dtb_walker_cache.ReadReq_mshr_miss_latency::total     86297500                       # number of ReadReq MSHR miss cycles
system.cpu.dtb_walker_cache.ReadReq_mshr_miss_rate::.switch_cpus.dtb.walker     0.216498                       # mshr miss rate for ReadReq accesses
system.cpu.dtb_walker_cache.ReadReq_mshr_miss_rate::total     0.216498                       # mshr miss rate for ReadReq accesses
system.cpu.dtb_walker_cache.ReadReq_mshr_misses::.switch_cpus.dtb.walker         5026                       # number of ReadReq MSHR misses
system.cpu.dtb_walker_cache.ReadReq_mshr_misses::total         5026                       # number of ReadReq MSHR misses
system.cpu.dtb_walker_cache.avg_blocked_cycles::no_mshrs          nan                       # average number of cycles each access was blocked
system.cpu.dtb_walker_cache.avg_blocked_cycles::no_targets          nan                       # average number of cycles each access was blocked
system.cpu.dtb_walker_cache.blocked::no_mshrs            0                       # number of cycles access was blocked
system.cpu.dtb_walker_cache.blocked::no_targets            0                       # number of cycles access was blocked
system.cpu.dtb_walker_cache.blocked_cycles::no_mshrs            0                       # number of cycles access was blocked
system.cpu.dtb_walker_cache.blocked_cycles::no_targets            0                       # number of cycles access was blocked
system.cpu.dtb_walker_cache.demand_accesses::.switch_cpus.dtb.walker        23215                       # number of demand (read+write) accesses
system.cpu.dtb_walker_cache.demand_accesses::total        23215                       # number of demand (read+write) accesses
system.cpu.dtb_walker_cache.demand_avg_miss_latency::.switch_cpus.dtb.walker 17670.214883                       # average overall miss latency
system.cpu.dtb_walker_cache.demand_avg_miss_latency::total 17670.214883                       # average overall miss latency
system.cpu.dtb_walker_cache.demand_avg_mshr_miss_latency::.switch_cpus.dtb.walker 17170.214883                       # average overall mshr miss latency
system.cpu.dtb_walker_cache.demand_avg_mshr_miss_latency::total 17170.214883                       # average overall mshr miss latency
system.cpu.dtb_walker_cache.demand_hits::.switch_cpus.dtb.walker        18189                       # number of demand (read+write) hits
system.cpu.dtb_walker_cache.demand_hits::total        18189                       # number of demand (read+write) hits
system.cpu.dtb_walker_cache.demand_miss_latency::.switch_cpus.dtb.walker     88810500                       # number of demand (read+write) miss cycles
system.cpu.dtb_walker_cache.demand_miss_latency::total     88810500                       # number of demand (read+write) miss cycles
system.cpu.dtb_walker_cache.demand_miss_rate::.switch_cpus.dtb.walker     0.216498                       # miss rate for demand accesses
system.cpu.dtb_walker_cache.demand_miss_rate::total     0.216498                       # miss rate for demand accesses
system.cpu.dtb_walker_cache.demand_misses::.switch_cpus.dtb.walker         5026                       # number of demand (read+write) misses
system.cpu.dtb_walker_cache.demand_misses::total         5026                       # number of demand (read+write) misses
system.cpu.dtb_walker_cache.demand_mshr_miss_latency::.switch_cpus.dtb.walker     86297500                       # number of demand (read+write) MSHR miss cycles
system.cpu.dtb_walker_cache.demand_mshr_miss_latency::total     86297500                       # number of demand (read+write) MSHR miss cycles
system.cpu.dtb_walker_cache.demand_mshr_miss_rate::.switch_cpus.dtb.walker     0.216498                       # mshr miss rate for demand accesses
system.cpu.dtb_walker_cache.demand_mshr_miss_rate::total     0.216498                       # mshr miss rate for demand accesses
system.cpu.dtb_walker_cache.demand_mshr_misses::.switch_cpus.dtb.walker         5026                       # number of demand (read+write) MSHR misses
system.cpu.dtb_walker_cache.demand_mshr_misses::total         5026                       # number of demand (read+write) MSHR misses
system.cpu.dtb_walker_cache.overall_accesses::.switch_cpus.dtb.walker        23215                       # number of overall (read+write) accesses
system.cpu.dtb_walker_cache.overall_accesses::total        23215                       # number of overall (read+write) accesses
system.cpu.dtb_walker_cache.overall_avg_miss_latency::.switch_cpus.dtb.walker 17670.214883                       # average overall miss latency
system.cpu.dtb_walker_cache.overall_avg_miss_latency::total 17670.214883                       # average overall miss latency
system.cpu.dtb_walker_cache.overall_avg_mshr_miss_latency::.switch_cpus.dtb.walker 17170.214883                       # average overall mshr miss latency
system.cpu.dtb_walker_cache.overall_avg_mshr_miss_latency::total 17170.214883                       # average overall mshr miss latency
system.cpu.dtb_walker_cache.overall_hits::.switch_cpus.dtb.walker        18189                       # number of overall hits
system.cpu.dtb_walker_cache.overall_hits::total        18189                       # number of overall hits
system.cpu.dtb_walker_cache.overall_miss_latency::.switch_cpus.dtb.walker     88810500                       # number of overall miss cycles
system.cpu.dtb_walker_cache.overall_miss_latency::total     88810500                       # number of overall miss cycles
system.cpu.dtb_walker_cache.overall_miss_rate::.switch_cpus.dtb.walker     0.216498                       # miss rate for overall accesses
system.cpu.dtb_walker_cache.overall_miss_rate::total     0.216498                       # miss rate for overall accesses
system.cpu.dtb_walker_cache.overall_misses::.switch_cpus.dtb.walker         5026                       # number of overall misses
system.cpu.dtb_walker_cache.overall_misses::total         5026                       # number of overall misses
system.cpu.dtb_walker_cache.overall_mshr_miss_latency::.switch_cpus.dtb.walker     86297500                       # number of overall MSHR miss cycles
system.cpu.dtb_walker_cache.overall_mshr_miss_latency::total     86297500                       # number of overall MSHR miss cycles
system.cpu.dtb_walker_cache.overall_mshr_miss_rate::.switch_cpus.dtb.walker     0.216498                       # mshr miss rate for overall accesses
system.cpu.dtb_walker_cache.overall_mshr_miss_rate::total     0.216498                       # mshr miss rate for overall accesses
system.cpu.dtb_walker_cache.overall_mshr_misses::.switch_cpus.dtb.walker         5026                       # number of overall MSHR misses
system.cpu.dtb_walker_cache.overall_mshr_misses::total         5026                       # number of overall MSHR misses
system.cpu.dtb_walker_cache.replacements         4969                       # number of replacements
system.cpu.dtb_walker_cache.tags.age_task_id_blocks_1025::2            2                       # Occupied blocks per task id
system.cpu.dtb_walker_cache.tags.age_task_id_blocks_1025::3            7                       # Occupied blocks per task id
system.cpu.dtb_walker_cache.tags.age_task_id_blocks_1025::4            7                       # Occupied blocks per task id
system.cpu.dtb_walker_cache.tags.avg_refs     4.422355                       # Average number of references to valid blocks.
system.cpu.dtb_walker_cache.tags.data_accesses        51456                       # Number of data accesses
system.cpu.dtb_walker_cache.tags.occ_blocks::.switch_cpus.dtb.walker    15.828357                       # Average occupied blocks per requestor
system.cpu.dtb_walker_cache.tags.occ_percent::.switch_cpus.dtb.walker     0.989272                       # Average percentage of cache occupancy
system.cpu.dtb_walker_cache.tags.occ_percent::total     0.989272                       # Average percentage of cache occupancy
system.cpu.dtb_walker_cache.tags.occ_task_id_blocks::1025           16                       # Occupied blocks per task id
system.cpu.dtb_walker_cache.tags.occ_task_id_percent::1025            1                       # Percentage of cache occupancy per task id
system.cpu.dtb_walker_cache.tags.sampled_refs         5010                       # Sample count of references to valid blocks.
system.cpu.dtb_walker_cache.tags.tag_accesses        51456                       # Number of tag accesses
system.cpu.dtb_walker_cache.tags.tagsinuse    15.828357                       # Cycle average of tags in use
system.cpu.dtb_walker_cache.tags.total_refs        22156                       # Total number of references to valid blocks.
system.cpu.dtb_walker_cache.tags.warmup_cycle 807268655653000                       # Cycle when the warmup percentage was hit.
system.cpu.dtb_walker_cache.tlbTagged.rdAccesses            0                       # TLB accesses on read requests
system.cpu.dtb_walker_cache.tlbTagged.rdMisses            0                       # TLB misses on read requests
system.cpu.dtb_walker_cache.tlbTagged.wrAccesses            0                       # TLB accesses on write requests
system.cpu.dtb_walker_cache.tlbTagged.wrMisses            0                       # TLB misses on write requests
system.cpu.icache.DataMeta::0                       0                       # Distribution of access
system.cpu.icache.DataMeta::1                       0                       # Distribution of access
system.cpu.icache.DataMeta::2                       0                       # Distribution of access
system.cpu.icache.DataMeta::3                       0                       # Distribution of access
system.cpu.icache.ReadReq_accesses::.switch_cpus.inst      8722252                       # number of ReadReq accesses(hits+misses)
system.cpu.icache.ReadReq_accesses::total      8722252                       # number of ReadReq accesses(hits+misses)
system.cpu.icache.ReadReq_avg_miss_latency::.switch_cpus.inst 44791.307316                       # average ReadReq miss latency
system.cpu.icache.ReadReq_avg_miss_latency::total 44791.307316                       # average ReadReq miss latency
system.cpu.icache.ReadReq_avg_mshr_miss_latency::.switch_cpus.inst 43837.186941                       # average ReadReq mshr miss latency
system.cpu.icache.ReadReq_avg_mshr_miss_latency::total 43837.186941                       # average ReadReq mshr miss latency
system.cpu.icache.ReadReq_hits::.switch_cpus.inst      8708338                       # number of ReadReq hits
system.cpu.icache.ReadReq_hits::total         8708338                       # number of ReadReq hits
system.cpu.icache.ReadReq_miss_latency::.switch_cpus.inst    623226250                       # number of ReadReq miss cycles
system.cpu.icache.ReadReq_miss_latency::total    623226250                       # number of ReadReq miss cycles
system.cpu.icache.ReadReq_miss_rate::.switch_cpus.inst     0.001595                       # miss rate for ReadReq accesses
system.cpu.icache.ReadReq_miss_rate::total     0.001595                       # miss rate for ReadReq accesses
system.cpu.icache.ReadReq_misses::.switch_cpus.inst        13914                       # number of ReadReq misses
system.cpu.icache.ReadReq_misses::total         13914                       # number of ReadReq misses
system.cpu.icache.ReadReq_mshr_hits::.switch_cpus.inst         2734                       # number of ReadReq MSHR hits
system.cpu.icache.ReadReq_mshr_hits::total         2734                       # number of ReadReq MSHR hits
system.cpu.icache.ReadReq_mshr_miss_latency::.switch_cpus.inst    490099750                       # number of ReadReq MSHR miss cycles
system.cpu.icache.ReadReq_mshr_miss_latency::total    490099750                       # number of ReadReq MSHR miss cycles
system.cpu.icache.ReadReq_mshr_miss_rate::.switch_cpus.inst     0.001282                       # mshr miss rate for ReadReq accesses
system.cpu.icache.ReadReq_mshr_miss_rate::total     0.001282                       # mshr miss rate for ReadReq accesses
system.cpu.icache.ReadReq_mshr_misses::.switch_cpus.inst        11180                       # number of ReadReq MSHR misses
system.cpu.icache.ReadReq_mshr_misses::total        11180                       # number of ReadReq MSHR misses
system.cpu.icache.avg_blocked_cycles::no_mshrs          nan                       # average number of cycles each access was blocked
system.cpu.icache.avg_blocked_cycles::no_targets          nan                       # average number of cycles each access was blocked
system.cpu.icache.blocked::no_mshrs                 0                       # number of cycles access was blocked
system.cpu.icache.blocked::no_targets               0                       # number of cycles access was blocked
system.cpu.icache.blocked_cycles::no_mshrs            0                       # number of cycles access was blocked
system.cpu.icache.blocked_cycles::no_targets            0                       # number of cycles access was blocked
system.cpu.icache.demand_accesses::.switch_cpus.inst      8722252                       # number of demand (read+write) accesses
system.cpu.icache.demand_accesses::total      8722252                       # number of demand (read+write) accesses
system.cpu.icache.demand_avg_miss_latency::.switch_cpus.inst 44791.307316                       # average overall miss latency
system.cpu.icache.demand_avg_miss_latency::total 44791.307316                       # average overall miss latency
system.cpu.icache.demand_avg_mshr_miss_latency::.switch_cpus.inst 43837.186941                       # average overall mshr miss latency
system.cpu.icache.demand_avg_mshr_miss_latency::total 43837.186941                       # average overall mshr miss latency
system.cpu.icache.demand_hits::.switch_cpus.inst      8708338                       # number of demand (read+write) hits
system.cpu.icache.demand_hits::total          8708338                       # number of demand (read+write) hits
system.cpu.icache.demand_miss_latency::.switch_cpus.inst    623226250                       # number of demand (read+write) miss cycles
system.cpu.icache.demand_miss_latency::total    623226250                       # number of demand (read+write) miss cycles
system.cpu.icache.demand_miss_rate::.switch_cpus.inst     0.001595                       # miss rate for demand accesses
system.cpu.icache.demand_miss_rate::total     0.001595                       # miss rate for demand accesses
system.cpu.icache.demand_misses::.switch_cpus.inst        13914                       # number of demand (read+write) misses
system.cpu.icache.demand_misses::total          13914                       # number of demand (read+write) misses
system.cpu.icache.demand_mshr_hits::.switch_cpus.inst         2734                       # number of demand (read+write) MSHR hits
system.cpu.icache.demand_mshr_hits::total         2734                       # number of demand (read+write) MSHR hits
system.cpu.icache.demand_mshr_miss_latency::.switch_cpus.inst    490099750                       # number of demand (read+write) MSHR miss cycles
system.cpu.icache.demand_mshr_miss_latency::total    490099750                       # number of demand (read+write) MSHR miss cycles
system.cpu.icache.demand_mshr_miss_rate::.switch_cpus.inst     0.001282                       # mshr miss rate for demand accesses
system.cpu.icache.demand_mshr_miss_rate::total     0.001282                       # mshr miss rate for demand accesses
system.cpu.icache.demand_mshr_misses::.switch_cpus.inst        11180                       # number of demand (read+write) MSHR misses
system.cpu.icache.demand_mshr_misses::total        11180                       # number of demand (read+write) MSHR misses
system.cpu.icache.overall_accesses::.switch_cpus.inst      8722252                       # number of overall (read+write) accesses
system.cpu.icache.overall_accesses::total      8722252                       # number of overall (read+write) accesses
system.cpu.icache.overall_avg_miss_latency::.switch_cpus.inst 44791.307316                       # average overall miss latency
system.cpu.icache.overall_avg_miss_latency::total 44791.307316                       # average overall miss latency
system.cpu.icache.overall_avg_mshr_miss_latency::.switch_cpus.inst 43837.186941                       # average overall mshr miss latency
system.cpu.icache.overall_avg_mshr_miss_latency::total 43837.186941                       # average overall mshr miss latency
system.cpu.icache.overall_hits::.switch_cpus.inst      8708338                       # number of overall hits
system.cpu.icache.overall_hits::total         8708338                       # number of overall hits
system.cpu.icache.overall_miss_latency::.switch_cpus.inst    623226250                       # number of overall miss cycles
system.cpu.icache.overall_miss_latency::total    623226250                       # number of overall miss cycles
system.cpu.icache.overall_miss_rate::.switch_cpus.inst     0.001595                       # miss rate for overall accesses
system.cpu.icache.overall_miss_rate::total     0.001595                       # miss rate for overall accesses
system.cpu.icache.overall_misses::.switch_cpus.inst        13914                       # number of overall misses
system.cpu.icache.overall_misses::total         13914                       # number of overall misses
system.cpu.icache.overall_mshr_hits::.switch_cpus.inst         2734                       # number of overall MSHR hits
system.cpu.icache.overall_mshr_hits::total         2734                       # number of overall MSHR hits
system.cpu.icache.overall_mshr_miss_latency::.switch_cpus.inst    490099750                       # number of overall MSHR miss cycles
system.cpu.icache.overall_mshr_miss_latency::total    490099750                       # number of overall MSHR miss cycles
system.cpu.icache.overall_mshr_miss_rate::.switch_cpus.inst     0.001282                       # mshr miss rate for overall accesses
system.cpu.icache.overall_mshr_miss_rate::total     0.001282                       # mshr miss rate for overall accesses
system.cpu.icache.overall_mshr_misses::.switch_cpus.inst        11180                       # number of overall MSHR misses
system.cpu.icache.overall_mshr_misses::total        11180                       # number of overall MSHR misses
system.cpu.icache.replacements                  10668                       # number of replacements
system.cpu.icache.tags.age_task_id_blocks_1025::2           17                       # Occupied blocks per task id
system.cpu.icache.tags.age_task_id_blocks_1025::3          137                       # Occupied blocks per task id
system.cpu.icache.tags.age_task_id_blocks_1025::4          358                       # Occupied blocks per task id
system.cpu.icache.tags.avg_refs            217.832490                       # Average number of references to valid blocks.
system.cpu.icache.tags.data_accesses         34900188                       # Number of data accesses
system.cpu.icache.tags.occ_blocks::.switch_cpus.inst   485.177929                       # Average occupied blocks per requestor
system.cpu.icache.tags.occ_percent::.switch_cpus.inst     0.947613                       # Average percentage of cache occupancy
system.cpu.icache.tags.occ_percent::total     0.947613                       # Average percentage of cache occupancy
system.cpu.icache.tags.occ_task_id_blocks::1025          512                       # Occupied blocks per task id
system.cpu.icache.tags.occ_task_id_percent::1025            1                       # Percentage of cache occupancy per task id
system.cpu.icache.tags.sampled_refs             10668                       # Sample count of references to valid blocks.
system.cpu.icache.tags.tag_accesses          34900188                       # Number of tag accesses
system.cpu.icache.tags.tagsinuse           485.177929                       # Cycle average of tags in use
system.cpu.icache.tags.total_refs             2323837                       # Total number of references to valid blocks.
system.cpu.icache.tags.warmup_cycle      807268655647000                       # Cycle when the warmup percentage was hit.
system.cpu.icache.tlbTagged.rdAccesses              0                       # TLB accesses on read requests
system.cpu.icache.tlbTagged.rdMisses                0                       # TLB misses on read requests
system.cpu.icache.tlbTagged.wrAccesses              0                       # TLB accesses on write requests
system.cpu.icache.tlbTagged.wrMisses                0                       # TLB misses on write requests
system.cpu.icache.writebacks::.writebacks        10668                       # number of writebacks
system.cpu.icache.writebacks::total             10668                       # number of writebacks
system.cpu.itb.rdAccesses                           0                       # TLB accesses on read requests
system.cpu.itb.rdMisses                             0                       # TLB misses on read requests
system.cpu.itb.wrAccesses                           0                       # TLB accesses on write requests
system.cpu.itb.wrMisses                             0                       # TLB misses on write requests
system.cpu.itb_walker_cache.DataMeta::0             0                       # Distribution of access
system.cpu.itb_walker_cache.DataMeta::1             0                       # Distribution of access
system.cpu.itb_walker_cache.DataMeta::2             0                       # Distribution of access
system.cpu.itb_walker_cache.DataMeta::3             0                       # Distribution of access
system.cpu.itb_walker_cache.ReadReq_accesses::.switch_cpus.itb.walker          372                       # number of ReadReq accesses(hits+misses)
system.cpu.itb_walker_cache.ReadReq_accesses::total          372                       # number of ReadReq accesses(hits+misses)
system.cpu.itb_walker_cache.ReadReq_avg_miss_latency::.switch_cpus.itb.walker 51848.765432                       # average ReadReq miss latency
system.cpu.itb_walker_cache.ReadReq_avg_miss_latency::total 51848.765432                       # average ReadReq miss latency
system.cpu.itb_walker_cache.ReadReq_avg_mshr_miss_latency::.switch_cpus.itb.walker 51348.765432                       # average ReadReq mshr miss latency
system.cpu.itb_walker_cache.ReadReq_avg_mshr_miss_latency::total 51348.765432                       # average ReadReq mshr miss latency
system.cpu.itb_walker_cache.ReadReq_hits::.switch_cpus.itb.walker          291                       # number of ReadReq hits
system.cpu.itb_walker_cache.ReadReq_hits::total          291                       # number of ReadReq hits
system.cpu.itb_walker_cache.ReadReq_miss_latency::.switch_cpus.itb.walker      4199750                       # number of ReadReq miss cycles
system.cpu.itb_walker_cache.ReadReq_miss_latency::total      4199750                       # number of ReadReq miss cycles
system.cpu.itb_walker_cache.ReadReq_miss_rate::.switch_cpus.itb.walker     0.217742                       # miss rate for ReadReq accesses
system.cpu.itb_walker_cache.ReadReq_miss_rate::total     0.217742                       # miss rate for ReadReq accesses
system.cpu.itb_walker_cache.ReadReq_misses::.switch_cpus.itb.walker           81                       # number of ReadReq misses
system.cpu.itb_walker_cache.ReadReq_misses::total           81                       # number of ReadReq misses
system.cpu.itb_walker_cache.ReadReq_mshr_miss_latency::.switch_cpus.itb.walker      4159250                       # number of ReadReq MSHR miss cycles
system.cpu.itb_walker_cache.ReadReq_mshr_miss_latency::total      4159250                       # number of ReadReq MSHR miss cycles
system.cpu.itb_walker_cache.ReadReq_mshr_miss_rate::.switch_cpus.itb.walker     0.217742                       # mshr miss rate for ReadReq accesses
system.cpu.itb_walker_cache.ReadReq_mshr_miss_rate::total     0.217742                       # mshr miss rate for ReadReq accesses
system.cpu.itb_walker_cache.ReadReq_mshr_misses::.switch_cpus.itb.walker           81                       # number of ReadReq MSHR misses
system.cpu.itb_walker_cache.ReadReq_mshr_misses::total           81                       # number of ReadReq MSHR misses
system.cpu.itb_walker_cache.avg_blocked_cycles::no_mshrs          nan                       # average number of cycles each access was blocked
system.cpu.itb_walker_cache.avg_blocked_cycles::no_targets          nan                       # average number of cycles each access was blocked
system.cpu.itb_walker_cache.blocked::no_mshrs            0                       # number of cycles access was blocked
system.cpu.itb_walker_cache.blocked::no_targets            0                       # number of cycles access was blocked
system.cpu.itb_walker_cache.blocked_cycles::no_mshrs            0                       # number of cycles access was blocked
system.cpu.itb_walker_cache.blocked_cycles::no_targets            0                       # number of cycles access was blocked
system.cpu.itb_walker_cache.demand_accesses::.switch_cpus.itb.walker          372                       # number of demand (read+write) accesses
system.cpu.itb_walker_cache.demand_accesses::total          372                       # number of demand (read+write) accesses
system.cpu.itb_walker_cache.demand_avg_miss_latency::.switch_cpus.itb.walker 51848.765432                       # average overall miss latency
system.cpu.itb_walker_cache.demand_avg_miss_latency::total 51848.765432                       # average overall miss latency
system.cpu.itb_walker_cache.demand_avg_mshr_miss_latency::.switch_cpus.itb.walker 51348.765432                       # average overall mshr miss latency
system.cpu.itb_walker_cache.demand_avg_mshr_miss_latency::total 51348.765432                       # average overall mshr miss latency
system.cpu.itb_walker_cache.demand_hits::.switch_cpus.itb.walker          291                       # number of demand (read+write) hits
system.cpu.itb_walker_cache.demand_hits::total          291                       # number of demand (read+write) hits
system.cpu.itb_walker_cache.demand_miss_latency::.switch_cpus.itb.walker      4199750                       # number of demand (read+write) miss cycles
system.cpu.itb_walker_cache.demand_miss_latency::total      4199750                       # number of demand (read+write) miss cycles
system.cpu.itb_walker_cache.demand_miss_rate::.switch_cpus.itb.walker     0.217742                       # miss rate for demand accesses
system.cpu.itb_walker_cache.demand_miss_rate::total     0.217742                       # miss rate for demand accesses
system.cpu.itb_walker_cache.demand_misses::.switch_cpus.itb.walker           81                       # number of demand (read+write) misses
system.cpu.itb_walker_cache.demand_misses::total           81                       # number of demand (read+write) misses
system.cpu.itb_walker_cache.demand_mshr_miss_latency::.switch_cpus.itb.walker      4159250                       # number of demand (read+write) MSHR miss cycles
system.cpu.itb_walker_cache.demand_mshr_miss_latency::total      4159250                       # number of demand (read+write) MSHR miss cycles
system.cpu.itb_walker_cache.demand_mshr_miss_rate::.switch_cpus.itb.walker     0.217742                       # mshr miss rate for demand accesses
system.cpu.itb_walker_cache.demand_mshr_miss_rate::total     0.217742                       # mshr miss rate for demand accesses
system.cpu.itb_walker_cache.demand_mshr_misses::.switch_cpus.itb.walker           81                       # number of demand (read+write) MSHR misses
system.cpu.itb_walker_cache.demand_mshr_misses::total           81                       # number of demand (read+write) MSHR misses
system.cpu.itb_walker_cache.overall_accesses::.switch_cpus.itb.walker          372                       # number of overall (read+write) accesses
system.cpu.itb_walker_cache.overall_accesses::total          372                       # number of overall (read+write) accesses
system.cpu.itb_walker_cache.overall_avg_miss_latency::.switch_cpus.itb.walker 51848.765432                       # average overall miss latency
system.cpu.itb_walker_cache.overall_avg_miss_latency::total 51848.765432                       # average overall miss latency
system.cpu.itb_walker_cache.overall_avg_mshr_miss_latency::.switch_cpus.itb.walker 51348.765432                       # average overall mshr miss latency
system.cpu.itb_walker_cache.overall_avg_mshr_miss_latency::total 51348.765432                       # average overall mshr miss latency
system.cpu.itb_walker_cache.overall_hits::.switch_cpus.itb.walker          291                       # number of overall hits
system.cpu.itb_walker_cache.overall_hits::total          291                       # number of overall hits
system.cpu.itb_walker_cache.overall_miss_latency::.switch_cpus.itb.walker      4199750                       # number of overall miss cycles
system.cpu.itb_walker_cache.overall_miss_latency::total      4199750                       # number of overall miss cycles
system.cpu.itb_walker_cache.overall_miss_rate::.switch_cpus.itb.walker     0.217742                       # miss rate for overall accesses
system.cpu.itb_walker_cache.overall_miss_rate::total     0.217742                       # miss rate for overall accesses
system.cpu.itb_walker_cache.overall_misses::.switch_cpus.itb.walker           81                       # number of overall misses
system.cpu.itb_walker_cache.overall_misses::total           81                       # number of overall misses
system.cpu.itb_walker_cache.overall_mshr_miss_latency::.switch_cpus.itb.walker      4159250                       # number of overall MSHR miss cycles
system.cpu.itb_walker_cache.overall_mshr_miss_latency::total      4159250                       # number of overall MSHR miss cycles
system.cpu.itb_walker_cache.overall_mshr_miss_rate::.switch_cpus.itb.walker     0.217742                       # mshr miss rate for overall accesses
system.cpu.itb_walker_cache.overall_mshr_miss_rate::total     0.217742                       # mshr miss rate for overall accesses
system.cpu.itb_walker_cache.overall_mshr_misses::.switch_cpus.itb.walker           81                       # number of overall MSHR misses
system.cpu.itb_walker_cache.overall_mshr_misses::total           81                       # number of overall MSHR misses
system.cpu.itb_walker_cache.replacements           65                       # number of replacements
system.cpu.itb_walker_cache.tags.age_task_id_blocks_1025::4           16                       # Occupied blocks per task id
system.cpu.itb_walker_cache.tags.avg_refs     5.030769                       # Average number of references to valid blocks.
system.cpu.itb_walker_cache.tags.data_accesses          825                       # Number of data accesses
system.cpu.itb_walker_cache.tags.occ_blocks::.switch_cpus.itb.walker    13.599166                       # Average occupied blocks per requestor
system.cpu.itb_walker_cache.tags.occ_percent::.switch_cpus.itb.walker     0.849948                       # Average percentage of cache occupancy
system.cpu.itb_walker_cache.tags.occ_percent::total     0.849948                       # Average percentage of cache occupancy
system.cpu.itb_walker_cache.tags.occ_task_id_blocks::1025           16                       # Occupied blocks per task id
system.cpu.itb_walker_cache.tags.occ_task_id_percent::1025            1                       # Percentage of cache occupancy per task id
system.cpu.itb_walker_cache.tags.sampled_refs           65                       # Sample count of references to valid blocks.
system.cpu.itb_walker_cache.tags.tag_accesses          825                       # Number of tag accesses
system.cpu.itb_walker_cache.tags.tagsinuse    13.599166                       # Cycle average of tags in use
system.cpu.itb_walker_cache.tags.total_refs          327                       # Total number of references to valid blocks.
system.cpu.itb_walker_cache.tags.warmup_cycle 807268655317000                       # Cycle when the warmup percentage was hit.
system.cpu.itb_walker_cache.tlbTagged.rdAccesses            0                       # TLB accesses on read requests
system.cpu.itb_walker_cache.tlbTagged.rdMisses            0                       # TLB misses on read requests
system.cpu.itb_walker_cache.tlbTagged.wrAccesses            0                       # TLB accesses on write requests
system.cpu.itb_walker_cache.tlbTagged.wrMisses            0                       # TLB misses on write requests
system.cpu.kern.inst.arm                            0                       # number of arm instructions executed
system.cpu.kern.inst.quiesce                        0                       # number of quiesce instructions executed
system.cpu.l2cache.CleanEvict_mshr_miss_rate::.writebacks          inf                       # mshr miss rate for CleanEvict accesses
system.cpu.l2cache.CleanEvict_mshr_miss_rate::total          inf                       # mshr miss rate for CleanEvict accesses
system.cpu.l2cache.CleanEvict_mshr_misses::.writebacks         1215                       # number of CleanEvict MSHR misses
system.cpu.l2cache.CleanEvict_mshr_misses::total         1215                       # number of CleanEvict MSHR misses
system.cpu.l2cache.DataMeta::0                      0                       # Distribution of access
system.cpu.l2cache.DataMeta::1                      0                       # Distribution of access
system.cpu.l2cache.DataMeta::2                      0                       # Distribution of access
system.cpu.l2cache.DataMeta::3                      0                       # Distribution of access
system.cpu.l2cache.HardPFReq_avg_mshr_miss_latency::.cpu.l2cache.prefetcher 103769.370580                       # average HardPFReq mshr miss latency
system.cpu.l2cache.HardPFReq_avg_mshr_miss_latency::total 103769.370580                       # average HardPFReq mshr miss latency
system.cpu.l2cache.HardPFReq_mshr_miss_latency::.cpu.l2cache.prefetcher 315241282194                       # number of HardPFReq MSHR miss cycles
system.cpu.l2cache.HardPFReq_mshr_miss_latency::total 315241282194                       # number of HardPFReq MSHR miss cycles
system.cpu.l2cache.HardPFReq_mshr_miss_rate::.cpu.l2cache.prefetcher          inf                       # mshr miss rate for HardPFReq accesses
system.cpu.l2cache.HardPFReq_mshr_miss_rate::total          inf                       # mshr miss rate for HardPFReq accesses
system.cpu.l2cache.HardPFReq_mshr_misses::.cpu.l2cache.prefetcher      3037903                       # number of HardPFReq MSHR misses
system.cpu.l2cache.HardPFReq_mshr_misses::total      3037903                       # number of HardPFReq MSHR misses
system.cpu.l2cache.ReadCleanReq_accesses::.switch_cpus.inst        11180                       # number of ReadCleanReq accesses(hits+misses)
system.cpu.l2cache.ReadCleanReq_accesses::total        11180                       # number of ReadCleanReq accesses(hits+misses)
system.cpu.l2cache.ReadCleanReq_avg_miss_latency::.switch_cpus.inst 98164.986996                       # average ReadCleanReq miss latency
system.cpu.l2cache.ReadCleanReq_avg_miss_latency::total 98164.986996                       # average ReadCleanReq miss latency
system.cpu.l2cache.ReadCleanReq_avg_mshr_miss_latency::.switch_cpus.inst 99406.409687                       # average ReadCleanReq mshr miss latency
system.cpu.l2cache.ReadCleanReq_avg_mshr_miss_latency::total 99406.409687                       # average ReadCleanReq mshr miss latency
system.cpu.l2cache.ReadCleanReq_hits::.switch_cpus.inst         6566                       # number of ReadCleanReq hits
system.cpu.l2cache.ReadCleanReq_hits::total         6566                       # number of ReadCleanReq hits
system.cpu.l2cache.ReadCleanReq_miss_latency::.switch_cpus.inst    452933250                       # number of ReadCleanReq miss cycles
system.cpu.l2cache.ReadCleanReq_miss_latency::total    452933250                       # number of ReadCleanReq miss cycles
system.cpu.l2cache.ReadCleanReq_miss_rate::.switch_cpus.inst     0.412701                       # miss rate for ReadCleanReq accesses
system.cpu.l2cache.ReadCleanReq_miss_rate::total     0.412701                       # miss rate for ReadCleanReq accesses
system.cpu.l2cache.ReadCleanReq_misses::.switch_cpus.inst         4614                       # number of ReadCleanReq misses
system.cpu.l2cache.ReadCleanReq_misses::total         4614                       # number of ReadCleanReq misses
system.cpu.l2cache.ReadCleanReq_mshr_hits::.switch_cpus.inst          113                       # number of ReadCleanReq MSHR hits
system.cpu.l2cache.ReadCleanReq_mshr_hits::total          113                       # number of ReadCleanReq MSHR hits
system.cpu.l2cache.ReadCleanReq_mshr_miss_latency::.switch_cpus.inst    447428250                       # number of ReadCleanReq MSHR miss cycles
system.cpu.l2cache.ReadCleanReq_mshr_miss_latency::total    447428250                       # number of ReadCleanReq MSHR miss cycles
system.cpu.l2cache.ReadCleanReq_mshr_miss_rate::.switch_cpus.inst     0.402594                       # mshr miss rate for ReadCleanReq accesses
system.cpu.l2cache.ReadCleanReq_mshr_miss_rate::total     0.402594                       # mshr miss rate for ReadCleanReq accesses
system.cpu.l2cache.ReadCleanReq_mshr_misses::.switch_cpus.inst         4501                       # number of ReadCleanReq MSHR misses
system.cpu.l2cache.ReadCleanReq_mshr_misses::total         4501                       # number of ReadCleanReq MSHR misses
system.cpu.l2cache.ReadExReq_accesses::.switch_cpus.data       765427                       # number of ReadExReq accesses(hits+misses)
system.cpu.l2cache.ReadExReq_accesses::total       765427                       # number of ReadExReq accesses(hits+misses)
system.cpu.l2cache.ReadExReq_avg_miss_latency::.switch_cpus.data 96211.716899                       # average ReadExReq miss latency
system.cpu.l2cache.ReadExReq_avg_miss_latency::total 96211.716899                       # average ReadExReq miss latency
system.cpu.l2cache.ReadExReq_avg_mshr_miss_latency::.switch_cpus.data 119097.007000                       # average ReadExReq mshr miss latency
system.cpu.l2cache.ReadExReq_avg_mshr_miss_latency::total 119097.007000                       # average ReadExReq mshr miss latency
system.cpu.l2cache.ReadExReq_hits::.switch_cpus.data       689878                       # number of ReadExReq hits
system.cpu.l2cache.ReadExReq_hits::total       689878                       # number of ReadExReq hits
system.cpu.l2cache.ReadExReq_miss_latency::.switch_cpus.data   7268699000                       # number of ReadExReq miss cycles
system.cpu.l2cache.ReadExReq_miss_latency::total   7268699000                       # number of ReadExReq miss cycles
system.cpu.l2cache.ReadExReq_miss_rate::.switch_cpus.data     0.098702                       # miss rate for ReadExReq accesses
system.cpu.l2cache.ReadExReq_miss_rate::total     0.098702                       # miss rate for ReadExReq accesses
system.cpu.l2cache.ReadExReq_misses::.switch_cpus.data        75549                       # number of ReadExReq misses
system.cpu.l2cache.ReadExReq_misses::total        75549                       # number of ReadExReq misses
system.cpu.l2cache.ReadExReq_mshr_hits::.switch_cpus.data        21406                       # number of ReadExReq MSHR hits
system.cpu.l2cache.ReadExReq_mshr_hits::total        21406                       # number of ReadExReq MSHR hits
system.cpu.l2cache.ReadExReq_mshr_miss_latency::.switch_cpus.data   6448269250                       # number of ReadExReq MSHR miss cycles
system.cpu.l2cache.ReadExReq_mshr_miss_latency::total   6448269250                       # number of ReadExReq MSHR miss cycles
system.cpu.l2cache.ReadExReq_mshr_miss_rate::.switch_cpus.data     0.070736                       # mshr miss rate for ReadExReq accesses
system.cpu.l2cache.ReadExReq_mshr_miss_rate::total     0.070736                       # mshr miss rate for ReadExReq accesses
system.cpu.l2cache.ReadExReq_mshr_misses::.switch_cpus.data        54143                       # number of ReadExReq MSHR misses
system.cpu.l2cache.ReadExReq_mshr_misses::total        54143                       # number of ReadExReq MSHR misses
system.cpu.l2cache.ReadSharedReq_accesses::.cpu.dcache.prefetcher      3111156                       # number of ReadSharedReq accesses(hits+misses)
system.cpu.l2cache.ReadSharedReq_accesses::.switch_cpus.dtb.walker         4979                       # number of ReadSharedReq accesses(hits+misses)
system.cpu.l2cache.ReadSharedReq_accesses::.switch_cpus.itb.walker           81                       # number of ReadSharedReq accesses(hits+misses)
system.cpu.l2cache.ReadSharedReq_accesses::.switch_cpus.data       173773                       # number of ReadSharedReq accesses(hits+misses)
system.cpu.l2cache.ReadSharedReq_accesses::total      3289989                       # number of ReadSharedReq accesses(hits+misses)
system.cpu.l2cache.ReadSharedReq_avg_miss_latency::.cpu.dcache.prefetcher 90379.183384                       # average ReadSharedReq miss latency
system.cpu.l2cache.ReadSharedReq_avg_miss_latency::.switch_cpus.dtb.walker 72405.199580                       # average ReadSharedReq miss latency
system.cpu.l2cache.ReadSharedReq_avg_miss_latency::.switch_cpus.itb.walker 91982.558140                       # average ReadSharedReq miss latency
system.cpu.l2cache.ReadSharedReq_avg_miss_latency::.switch_cpus.data 59614.997332                       # average ReadSharedReq miss latency
system.cpu.l2cache.ReadSharedReq_avg_miss_latency::total 89560.012284                       # average ReadSharedReq miss latency
system.cpu.l2cache.ReadSharedReq_avg_mshr_miss_latency::.cpu.dcache.prefetcher 110864.818021                       # average ReadSharedReq mshr miss latency
system.cpu.l2cache.ReadSharedReq_avg_mshr_miss_latency::.switch_cpus.dtb.walker 72392.744479                       # average ReadSharedReq mshr miss latency
system.cpu.l2cache.ReadSharedReq_avg_mshr_miss_latency::.switch_cpus.itb.walker 91982.558140                       # average ReadSharedReq mshr miss latency
system.cpu.l2cache.ReadSharedReq_avg_mshr_miss_latency::.switch_cpus.data 115907.034594                       # average ReadSharedReq mshr miss latency
system.cpu.l2cache.ReadSharedReq_avg_mshr_miss_latency::total 110960.086728                       # average ReadSharedReq mshr miss latency
system.cpu.l2cache.ReadSharedReq_hits::.cpu.dcache.prefetcher       762484                       # number of ReadSharedReq hits
system.cpu.l2cache.ReadSharedReq_hits::.switch_cpus.dtb.walker         4027                       # number of ReadSharedReq hits
system.cpu.l2cache.ReadSharedReq_hits::.switch_cpus.itb.walker           38                       # number of ReadSharedReq hits
system.cpu.l2cache.ReadSharedReq_hits::.switch_cpus.data       110065                       # number of ReadSharedReq hits
system.cpu.l2cache.ReadSharedReq_hits::total       876614                       # number of ReadSharedReq hits
system.cpu.l2cache.ReadSharedReq_miss_latency::.cpu.dcache.prefetcher 212271057397                       # number of ReadSharedReq miss cycles
system.cpu.l2cache.ReadSharedReq_miss_latency::.switch_cpus.dtb.walker     68929750                       # number of ReadSharedReq miss cycles
system.cpu.l2cache.ReadSharedReq_miss_latency::.switch_cpus.itb.walker      3955250                       # number of ReadSharedReq miss cycles
system.cpu.l2cache.ReadSharedReq_miss_latency::.switch_cpus.data   3797952250                       # number of ReadSharedReq miss cycles
system.cpu.l2cache.ReadSharedReq_miss_latency::total 216141894647                       # number of ReadSharedReq miss cycles
system.cpu.l2cache.ReadSharedReq_miss_rate::.cpu.dcache.prefetcher     0.754919                       # miss rate for ReadSharedReq accesses
system.cpu.l2cache.ReadSharedReq_miss_rate::.switch_cpus.dtb.walker     0.191203                       # miss rate for ReadSharedReq accesses
system.cpu.l2cache.ReadSharedReq_miss_rate::.switch_cpus.itb.walker     0.530864                       # miss rate for ReadSharedReq accesses
system.cpu.l2cache.ReadSharedReq_miss_rate::.switch_cpus.data     0.366616                       # miss rate for ReadSharedReq accesses
system.cpu.l2cache.ReadSharedReq_miss_rate::total     0.733551                       # miss rate for ReadSharedReq accesses
system.cpu.l2cache.ReadSharedReq_misses::.cpu.dcache.prefetcher      2348672                       # number of ReadSharedReq misses
system.cpu.l2cache.ReadSharedReq_misses::.switch_cpus.dtb.walker          952                       # number of ReadSharedReq misses
system.cpu.l2cache.ReadSharedReq_misses::.switch_cpus.itb.walker           43                       # number of ReadSharedReq misses
system.cpu.l2cache.ReadSharedReq_misses::.switch_cpus.data        63708                       # number of ReadSharedReq misses
system.cpu.l2cache.ReadSharedReq_misses::total      2413375                       # number of ReadSharedReq misses
system.cpu.l2cache.ReadSharedReq_mshr_hits::.cpu.dcache.prefetcher      1395832                       # number of ReadSharedReq MSHR hits
system.cpu.l2cache.ReadSharedReq_mshr_hits::.switch_cpus.dtb.walker            1                       # number of ReadSharedReq MSHR hits
system.cpu.l2cache.ReadSharedReq_mshr_hits::.switch_cpus.data        37779                       # number of ReadSharedReq MSHR hits
system.cpu.l2cache.ReadSharedReq_mshr_hits::total      1433612                       # number of ReadSharedReq MSHR hits
system.cpu.l2cache.ReadSharedReq_mshr_miss_latency::.cpu.dcache.prefetcher 105636433203                       # number of ReadSharedReq MSHR miss cycles
system.cpu.l2cache.ReadSharedReq_mshr_miss_latency::.switch_cpus.dtb.walker     68845500                       # number of ReadSharedReq MSHR miss cycles
system.cpu.l2cache.ReadSharedReq_mshr_miss_latency::.switch_cpus.itb.walker      3955250                       # number of ReadSharedReq MSHR miss cycles
system.cpu.l2cache.ReadSharedReq_mshr_miss_latency::.switch_cpus.data   3005353500                       # number of ReadSharedReq MSHR miss cycles
system.cpu.l2cache.ReadSharedReq_mshr_miss_latency::total 108714587453                       # number of ReadSharedReq MSHR miss cycles
system.cpu.l2cache.ReadSharedReq_mshr_miss_rate::.cpu.dcache.prefetcher     0.306266                       # mshr miss rate for ReadSharedReq accesses
system.cpu.l2cache.ReadSharedReq_mshr_miss_rate::.switch_cpus.dtb.walker     0.191002                       # mshr miss rate for ReadSharedReq accesses
system.cpu.l2cache.ReadSharedReq_mshr_miss_rate::.switch_cpus.itb.walker     0.530864                       # mshr miss rate for ReadSharedReq accesses
system.cpu.l2cache.ReadSharedReq_mshr_miss_rate::.switch_cpus.data     0.149212                       # mshr miss rate for ReadSharedReq accesses
system.cpu.l2cache.ReadSharedReq_mshr_miss_rate::total     0.297801                       # mshr miss rate for ReadSharedReq accesses
system.cpu.l2cache.ReadSharedReq_mshr_misses::.cpu.dcache.prefetcher       952840                       # number of ReadSharedReq MSHR misses
system.cpu.l2cache.ReadSharedReq_mshr_misses::.switch_cpus.dtb.walker          951                       # number of ReadSharedReq MSHR misses
system.cpu.l2cache.ReadSharedReq_mshr_misses::.switch_cpus.itb.walker           43                       # number of ReadSharedReq MSHR misses
system.cpu.l2cache.ReadSharedReq_mshr_misses::.switch_cpus.data        25929                       # number of ReadSharedReq MSHR misses
system.cpu.l2cache.ReadSharedReq_mshr_misses::total       979763                       # number of ReadSharedReq MSHR misses
system.cpu.l2cache.UpgradeReq_accesses::.switch_cpus.data         2293                       # number of UpgradeReq accesses(hits+misses)
system.cpu.l2cache.UpgradeReq_accesses::total         2293                       # number of UpgradeReq accesses(hits+misses)
system.cpu.l2cache.UpgradeReq_avg_miss_latency::.switch_cpus.data 13307.017544                       # average UpgradeReq miss latency
system.cpu.l2cache.UpgradeReq_avg_miss_latency::total 13307.017544                       # average UpgradeReq miss latency
system.cpu.l2cache.UpgradeReq_avg_mshr_miss_latency::.switch_cpus.data 16035.087719                       # average UpgradeReq mshr miss latency
system.cpu.l2cache.UpgradeReq_avg_mshr_miss_latency::total 16035.087719                       # average UpgradeReq mshr miss latency
system.cpu.l2cache.UpgradeReq_hits::.switch_cpus.data         2236                       # number of UpgradeReq hits
system.cpu.l2cache.UpgradeReq_hits::total         2236                       # number of UpgradeReq hits
system.cpu.l2cache.UpgradeReq_miss_latency::.switch_cpus.data       758500                       # number of UpgradeReq miss cycles
system.cpu.l2cache.UpgradeReq_miss_latency::total       758500                       # number of UpgradeReq miss cycles
system.cpu.l2cache.UpgradeReq_miss_rate::.switch_cpus.data     0.024858                       # miss rate for UpgradeReq accesses
system.cpu.l2cache.UpgradeReq_miss_rate::total     0.024858                       # miss rate for UpgradeReq accesses
system.cpu.l2cache.UpgradeReq_misses::.switch_cpus.data           57                       # number of UpgradeReq misses
system.cpu.l2cache.UpgradeReq_misses::total           57                       # number of UpgradeReq misses
system.cpu.l2cache.UpgradeReq_mshr_miss_latency::.switch_cpus.data       914000                       # number of UpgradeReq MSHR miss cycles
system.cpu.l2cache.UpgradeReq_mshr_miss_latency::total       914000                       # number of UpgradeReq MSHR miss cycles
system.cpu.l2cache.UpgradeReq_mshr_miss_rate::.switch_cpus.data     0.024858                       # mshr miss rate for UpgradeReq accesses
system.cpu.l2cache.UpgradeReq_mshr_miss_rate::total     0.024858                       # mshr miss rate for UpgradeReq accesses
system.cpu.l2cache.UpgradeReq_mshr_misses::.switch_cpus.data           57                       # number of UpgradeReq MSHR misses
system.cpu.l2cache.UpgradeReq_mshr_misses::total           57                       # number of UpgradeReq MSHR misses
system.cpu.l2cache.WriteReq_mshr_uncacheable::.switch_cpus.data           92                       # number of WriteReq MSHR uncacheable
system.cpu.l2cache.WriteReq_mshr_uncacheable::total           92                       # number of WriteReq MSHR uncacheable
system.cpu.l2cache.WritebackClean_accesses::.writebacks        10668                       # number of WritebackClean accesses(hits+misses)
system.cpu.l2cache.WritebackClean_accesses::total        10668                       # number of WritebackClean accesses(hits+misses)
system.cpu.l2cache.WritebackClean_hits::.writebacks        10668                       # number of WritebackClean hits
system.cpu.l2cache.WritebackClean_hits::total        10668                       # number of WritebackClean hits
system.cpu.l2cache.WritebackDirty_accesses::.writebacks      3220014                       # number of WritebackDirty accesses(hits+misses)
system.cpu.l2cache.WritebackDirty_accesses::total      3220014                       # number of WritebackDirty accesses(hits+misses)
system.cpu.l2cache.WritebackDirty_hits::.writebacks      3220014                       # number of WritebackDirty hits
system.cpu.l2cache.WritebackDirty_hits::total      3220014                       # number of WritebackDirty hits
system.cpu.l2cache.avg_blocked_cycles::no_mshrs            8                       # average number of cycles each access was blocked
system.cpu.l2cache.avg_blocked_cycles::no_targets          nan                       # average number of cycles each access was blocked
system.cpu.l2cache.blocked::no_mshrs                1                       # number of cycles access was blocked
system.cpu.l2cache.blocked::no_targets              0                       # number of cycles access was blocked
system.cpu.l2cache.blocked_cycles::no_mshrs            8                       # number of cycles access was blocked
system.cpu.l2cache.blocked_cycles::no_targets            0                       # number of cycles access was blocked
system.cpu.l2cache.demand_accesses::.cpu.dcache.prefetcher      3111156                       # number of demand (read+write) accesses
system.cpu.l2cache.demand_accesses::.switch_cpus.dtb.walker         4979                       # number of demand (read+write) accesses
system.cpu.l2cache.demand_accesses::.switch_cpus.itb.walker           81                       # number of demand (read+write) accesses
system.cpu.l2cache.demand_accesses::.switch_cpus.inst        11180                       # number of demand (read+write) accesses
system.cpu.l2cache.demand_accesses::.switch_cpus.data       939200                       # number of demand (read+write) accesses
system.cpu.l2cache.demand_accesses::total      4066596                       # number of demand (read+write) accesses
system.cpu.l2cache.demand_avg_miss_latency::.cpu.dcache.prefetcher 90379.183384                       # average overall miss latency
system.cpu.l2cache.demand_avg_miss_latency::.switch_cpus.dtb.walker 72405.199580                       # average overall miss latency
system.cpu.l2cache.demand_avg_miss_latency::.switch_cpus.itb.walker 91982.558140                       # average overall miss latency
system.cpu.l2cache.demand_avg_miss_latency::.switch_cpus.inst 98164.986996                       # average overall miss latency
system.cpu.l2cache.demand_avg_miss_latency::.switch_cpus.data 79469.263664                       # average overall miss latency
system.cpu.l2cache.demand_avg_miss_latency::total 89777.467557                       # average overall miss latency
system.cpu.l2cache.demand_avg_mshr_miss_latency::.cpu.dcache.prefetcher 110864.818021                       # average overall mshr miss latency
system.cpu.l2cache.demand_avg_mshr_miss_latency::.switch_cpus.dtb.walker 72392.744479                       # average overall mshr miss latency
system.cpu.l2cache.demand_avg_mshr_miss_latency::.switch_cpus.itb.walker 91982.558140                       # average overall mshr miss latency
system.cpu.l2cache.demand_avg_mshr_miss_latency::.switch_cpus.inst 99406.409687                       # average overall mshr miss latency
system.cpu.l2cache.demand_avg_mshr_miss_latency::.switch_cpus.data 118064.026751                       # average overall mshr miss latency
system.cpu.l2cache.demand_avg_mshr_miss_latency::total 111334.269658                       # average overall mshr miss latency
system.cpu.l2cache.demand_hits::.cpu.dcache.prefetcher       762484                       # number of demand (read+write) hits
system.cpu.l2cache.demand_hits::.switch_cpus.dtb.walker         4027                       # number of demand (read+write) hits
system.cpu.l2cache.demand_hits::.switch_cpus.itb.walker           38                       # number of demand (read+write) hits
[...]
system.switch_cpus.iq.fu_full::MemRead              0                       # attempts to use FU when none available
system.switch_cpus.iq.fu_full::MemWrite             0                       # attempts to use FU when none available
system.switch_cpus.iq.fu_full::FloatMemRead            0                       # attempts to use FU when none available
system.switch_cpus.iq.fu_full::FloatMemWrite            0                       # attempts to use FU when none available
system.switch_cpus.iq.fu_full::IprAccess            0                       # attempts to use FU when none available
system.switch_cpus.iq.fu_full::InstPrefetch            0                       # attempts to use FU when none available
system.switch_cpus.iq.int_alu_accesses         710014                       # Number of integer alu accesses
system.switch_cpus.iq.int_inst_queue_reads      1987405                       # Number of integer instruction queue reads
system.switch_cpus.iq.int_inst_queue_wakeup_accesses       710013                       # Number of integer instruction queue wakeup accesses
system.switch_cpus.iq.int_inst_queue_writes       710018                       # Number of integer instruction queue writes
system.switch_cpus.iq.iqInstsAdded             710018                       # Number of instructions added to the IQ (excludes non-spec)
system.switch_cpus.iq.iqInstsIssued            710014                       # Number of instructions issued
system.switch_cpus.iq.issued_per_cycle::samples       567377                       # Number of insts issued each cycle
system.switch_cpus.iq.issued_per_cycle::mean     1.251397                       # Number of insts issued each cycle
system.switch_cpus.iq.issued_per_cycle::stdev     1.736956                       # Number of insts issued each cycle
system.switch_cpus.iq.issued_per_cycle::underflows            0      0.00%      0.00% # Number of insts issued each cycle
system.switch_cpus.iq.issued_per_cycle::0       312934     55.15%     55.15% # Number of insts issued each cycle
system.switch_cpus.iq.issued_per_cycle::1        65231     11.50%     66.65% # Number of insts issued each cycle
system.switch_cpus.iq.issued_per_cycle::2        75055     13.23%     79.88% # Number of insts issued each cycle
system.switch_cpus.iq.issued_per_cycle::3        19481      3.43%     83.31% # Number of insts issued each cycle
system.switch_cpus.iq.issued_per_cycle::4        50631      8.92%     92.24% # Number of insts issued each cycle
system.switch_cpus.iq.issued_per_cycle::5        30564      5.39%     97.62% # Number of insts issued each cycle
system.switch_cpus.iq.issued_per_cycle::6        13481      2.38%    100.00% # Number of insts issued each cycle
system.switch_cpus.iq.issued_per_cycle::7            0      0.00%    100.00% # Number of insts issued each cycle
system.switch_cpus.iq.issued_per_cycle::8            0      0.00%    100.00% # Number of insts issued each cycle
system.switch_cpus.iq.issued_per_cycle::overflows            0      0.00%    100.00% # Number of insts issued each cycle
system.switch_cpus.iq.issued_per_cycle::min_value            0                       # Number of insts issued each cycle
system.switch_cpus.iq.issued_per_cycle::max_value            6                       # Number of insts issued each cycle
system.switch_cpus.iq.issued_per_cycle::total       567377                       # Number of insts issued each cycle
system.switch_cpus.iq.rate                   1.251397                       # Inst issue rate
system.switch_cpus.iq.vec_alu_accesses              0                       # Number of vector alu accesses
system.switch_cpus.iq.vec_inst_queue_reads            0                       # Number of vector instruction queue reads
system.switch_cpus.iq.vec_inst_queue_wakeup_accesses            0                       # Number of vector instruction queue wakeup accesses
system.switch_cpus.iq.vec_inst_queue_writes            0                       # Number of vector instruction queue writes
system.switch_cpus.itb.rdAccesses                   0                       # TLB accesses on read requests
system.switch_cpus.itb.rdMisses                     0                       # TLB misses on read requests
system.switch_cpus.itb.wrAccesses               38037                       # TLB accesses on write requests
system.switch_cpus.itb.wrMisses                     0                       # TLB misses on write requests
system.switch_cpus.kern.inst.arm                    0                       # number of arm instructions executed
system.switch_cpus.kern.inst.quiesce                0                       # number of quiesce instructions executed
system.switch_cpus.memDep0.conflictingLoads            0                       # Number of conflicting loads.
system.switch_cpus.memDep0.conflictingStores            0                       # Number of conflicting stores.
system.switch_cpus.memDep0.insertedLoads        76074                       # Number of loads inserted to the mem dependence unit.
system.switch_cpus.memDep0.insertedStores       114110                       # Number of stores inserted to the mem dependence unit.
system.switch_cpus.misc_regfile_reads          367688                       # number of misc regfile reads
system.switch_cpus.numCycles                   567377                       # number of cpu cycles simulated
system.switch_cpus.numWorkItemsCompleted            0                       # number of work items this cpu completed
system.switch_cpus.numWorkItemsStarted              0                       # number of work items this cpu started
system.switch_cpus.rename.BlockCycles            9071                       # Number of cycles rename is blocking
system.switch_cpus.rename.CommittedMaps        760725                       # Number of HB maps that are committed
system.switch_cpus.rename.IdleCycles            57056                       # Number of cycles rename is idle
system.switch_cpus.rename.RenameLookups       1775055                       # Number of register rename lookups that rename has made
system.switch_cpus.rename.RenamedInsts         710022                       # Number of instructions processed by rename
system.switch_cpus.rename.RenamedOperands       760739                       # Number of destination operands rename has renamed
system.switch_cpus.rename.RunCycles             57056                       # Number of cycles rename is running
system.switch_cpus.rename.SQFullEvents         425178                       # Number of times rename has blocked due to SQ full
system.switch_cpus.rename.UnblockCycles        444194                       # Number of cycles rename is unblocking
system.switch_cpus.rename.int_rename_lookups       925564                       # Number of integer rename lookups
system.switch_cpus.rename.serializeStallCycles            0                       # count of cycles rename stalled for serializing inst
system.switch_cpus.rename.serializingInsts            0                       # count of serializing insts renamed
system.switch_cpus.rename.skidInsts            493344                       # count of insts added to the skid buffer
system.switch_cpus.rename.tempSerializingInsts            0                       # count of temporary serializing insts renamed
system.switch_cpus.rob.rob_reads              1277384                       # The number of ROB reads
system.switch_cpus.rob.rob_writes             1420026                       # The number of ROB writes
system.tol3bus.pkt_count_system.cpu.l2cache.mem_side::system.l3.cpu_side        14262                       # Packet count per connected master and slave (bytes)
system.tol3bus.pkt_size_system.cpu.l2cache.mem_side::system.l3.cpu_side       608512                       # Cumulative packet size per connected master and slave (bytes)
system.tol3bus.reqLayer0.occupancy            4757984                       # Layer occupancy (ticks)
system.tol3bus.reqLayer0.utilization              3.4                       # Layer utilization (%)
system.tol3bus.respLayer0.occupancy           4578399                       # Layer occupancy (ticks)
system.tol3bus.respLayer0.utilization             3.2                       # Layer utilization (%)
system.tol3bus.snoopTraffic                    305152                       # Total snoop traffic (bytes)
system.tol3bus.snoop_fanout::samples             9658                       # Request fanout histogram
system.tol3bus.snoop_fanout::mean            0.000207                       # Request fanout histogram
system.tol3bus.snoop_fanout::stdev           0.014390                       # Request fanout histogram
system.tol3bus.snoop_fanout::underflows             0      0.00%      0.00% # Request fanout histogram
system.tol3bus.snoop_fanout::0                   9656     99.98%     99.98% # Request fanout histogram
system.tol3bus.snoop_fanout::1                      2      0.02%    100.00% # Request fanout histogram
system.tol3bus.snoop_fanout::overflows              0      0.00%    100.00% # Request fanout histogram
system.tol3bus.snoop_fanout::min_value              0                       # Request fanout histogram
system.tol3bus.snoop_fanout::max_value              1                       # Request fanout histogram
system.tol3bus.snoop_fanout::total               9658                       # Request fanout histogram
system.tol3bus.snoop_filter.hit_multi_requests            0                       # Number of requests hitting in the snoop filter with multiple (>1) holders of the requested data.
system.tol3bus.snoop_filter.hit_multi_snoops            0                       # Number of snoops hitting in the snoop filter with multiple (>1) holders of the requested data.
system.tol3bus.snoop_filter.hit_single_requests         4754                       # Number of requests hitting in the snoop filter with a single holder of the requested data.
system.tol3bus.snoop_filter.hit_single_snoops            2                       # Number of snoops hitting in the snoop filter with a single holder of the requested data.
system.tol3bus.snoop_filter.tot_requests         9508                       # Total number of requests made to the snoop filter.
system.tol3bus.snoop_filter.tot_snoops              2                       # Total number of snoops made to the snoop filter.
system.tol3bus.snoops                            4904                       # Total snoops (count)
system.tol3bus.trans_dist::ReadResp              4659                       # Transaction distribution
system.tol3bus.trans_dist::WritebackDirty         9522                       # Transaction distribution
system.tol3bus.trans_dist::CleanEvict             136                       # Transaction distribution
system.tol3bus.trans_dist::ReadExReq               95                       # Transaction distribution
system.tol3bus.trans_dist::ReadExResp              95                       # Transaction distribution
system.tol3bus.trans_dist::ReadSharedReq         4659                       # Transaction distribution
system.bridge.pwrStateResidencyTicks::UNDEFINED    141844500                       # Cumulative time (in ticks) in various power states
system.voltage_domain.voltage                       1                       # Voltage in Volts
system.membus.pwrStateResidencyTicks::UNDEFINED    141844500                       # Cumulative time (in ticks) in various power states
system.membus.badaddr_responder.pwrStateResidencyTicks::UNDEFINED    141844500                       # Cumulative time (in ticks) in various power states
system.apicbridge.pwrStateResidencyTicks::UNDEFINED    141844500                       # Cumulative time (in ticks) in various power states
system.tol3bus.pwrStateResidencyTicks::UNDEFINED    141844500                       # Cumulative time (in ticks) in various power states
system.switch_cpus.pwrStateResidencyTicks::OFF    141844500                       # Cumulative time (in ticks) in various power states
system.switch_cpus.dtb.walker.pwrStateResidencyTicks::UNDEFINED    141844500                       # Cumulative time (in ticks) in various power states
system.switch_cpus.itb.walker.pwrStateResidencyTicks::UNDEFINED    141844500                       # Cumulative time (in ticks) in various power states
system.clk_domain.clock                          1000                       # Clock period in ticks
system.pc.fake_com_4.pwrStateResidencyTicks::UNDEFINED    141844500                       # Cumulative time (in ticks) in various power states
system.pc.fake_com_2.pwrStateResidencyTicks::UNDEFINED    141844500                       # Cumulative time (in ticks) in various power states
system.pc.fake_com_3.pwrStateResidencyTicks::UNDEFINED    141844500                       # Cumulative time (in ticks) in various power states
system.pc.south_bridge.io_apic.pwrStateResidencyTicks::UNDEFINED    141844500                       # Cumulative time (in ticks) in various power states
system.pc.south_bridge.pic1.pwrStateResidencyTicks::UNDEFINED    141844500                       # Cumulative time (in ticks) in various power states
system.pc.south_bridge.pic2.pwrStateResidencyTicks::UNDEFINED    141844500                       # Cumulative time (in ticks) in various power states
system.pc.south_bridge.dma1.pwrStateResidencyTicks::UNDEFINED    141844500                       # Cumulative time (in ticks) in various power states
system.pc.south_bridge.speaker.pwrStateResidencyTicks::UNDEFINED    141844500                       # Cumulative time (in ticks) in various power states
system.pc.south_bridge.keyboard.pwrStateResidencyTicks::UNDEFINED    141844500                       # Cumulative time (in ticks) in various power states
system.pc.south_bridge.ide.pwrStateResidencyTicks::UNDEFINED    141844500                       # Cumulative time (in ticks) in various power states
system.pc.south_bridge.pit.pwrStateResidencyTicks::UNDEFINED    141844500                       # Cumulative time (in ticks) in various power states
system.pc.south_bridge.cmos.pwrStateResidencyTicks::UNDEFINED    141844500                       # Cumulative time (in ticks) in various power states
system.pc.i_dont_exist2.pwrStateResidencyTicks::UNDEFINED    141844500                       # Cumulative time (in ticks) in various power states
system.pc.i_dont_exist1.pwrStateResidencyTicks::UNDEFINED    141844500                       # Cumulative time (in ticks) in various power states
system.pc.com_1.pwrStateResidencyTicks::UNDEFINED    141844500                       # Cumulative time (in ticks) in various power states
system.pc.fake_floppy.pwrStateResidencyTicks::UNDEFINED    141844500                       # Cumulative time (in ticks) in various power states
system.pc.behind_pci.pwrStateResidencyTicks::UNDEFINED    141844500                       # Cumulative time (in ticks) in various power states
system.pc.pci_host.pwrStateResidencyTicks::UNDEFINED    141844500                       # Cumulative time (in ticks) in various power states
system.cpu_clk_domain.clock                       250                       # Clock period in ticks
system.iocache.pwrStateResidencyTicks::UNDEFINED    141844500                       # Cumulative time (in ticks) in various power states
system.iocache.tlbTagged.walker.pwrStateResidencyTicks::UNDEFINED    141844500                       # Cumulative time (in ticks) in various power states
system.iocache.tags.pwrStateResidencyTicks::UNDEFINED    141844500                       # Cumulative time (in ticks) in various power states
system.mem_ctrls0.pwrStateResidencyTicks::UNDEFINED    141844500                       # Cumulative time (in ticks) in various power states
system.mem_ctrls1.pwrStateResidencyTicks::UNDEFINED    141844500                       # Cumulative time (in ticks) in various power states
system.l3.pwrStateResidencyTicks::UNDEFINED    141844500                       # Cumulative time (in ticks) in various power states
system.l3.tlbTagged.walker.pwrStateResidencyTicks::UNDEFINED    141844500                       # Cumulative time (in ticks) in various power states
system.l3.tags.pwrStateResidencyTicks::UNDEFINED    141844500                       # Cumulative time (in ticks) in various power states
system.cpu_voltage_domain.voltage                   1                       # Voltage in Volts
system.iobus.pwrStateResidencyTicks::UNDEFINED    141844500                       # Cumulative time (in ticks) in various power states
system.cpu.pwrStateResidencyTicks::OFF      141844500                       # Cumulative time (in ticks) in various power states
system.cpu.icache.pwrStateResidencyTicks::UNDEFINED    141844500                       # Cumulative time (in ticks) in various power states
system.cpu.icache.tlbTagged.walker.pwrStateResidencyTicks::UNDEFINED    141844500                       # Cumulative time (in ticks) in various power states
system.cpu.icache.tags.pwrStateResidencyTicks::UNDEFINED    141844500                       # Cumulative time (in ticks) in various power states
system.cpu.dtb.walker.pwrStateResidencyTicks::UNDEFINED    141844500                       # Cumulative time (in ticks) in various power states
system.cpu.interrupts.pwrStateResidencyTicks::UNDEFINED    141844500                       # Cumulative time (in ticks) in various power states
system.cpu.interrupts.clk_domain.clock           4000                       # Clock period in ticks
system.cpu.itb_walker_cache.pwrStateResidencyTicks::UNDEFINED    141844500                       # Cumulative time (in ticks) in various power states
system.cpu.itb_walker_cache.tlbTagged.walker.pwrStateResidencyTicks::UNDEFINED    141844500                       # Cumulative time (in ticks) in various power states
system.cpu.itb_walker_cache.tags.pwrStateResidencyTicks::UNDEFINED    141844500                       # Cumulative time (in ticks) in various power states
system.cpu.itb.walker.pwrStateResidencyTicks::UNDEFINED    141844500                       # Cumulative time (in ticks) in various power states
system.cpu.dtb_walker_cache.pwrStateResidencyTicks::UNDEFINED    141844500                       # Cumulative time (in ticks) in various power states
system.cpu.dtb_walker_cache.tlbTagged.walker.pwrStateResidencyTicks::UNDEFINED    141844500                       # Cumulative time (in ticks) in various power states
system.cpu.dtb_walker_cache.tags.pwrStateResidencyTicks::UNDEFINED    141844500                       # Cumulative time (in ticks) in various power states
system.cpu.dcache.pwrStateResidencyTicks::UNDEFINED    141844500                       # Cumulative time (in ticks) in various power states
system.cpu.dcache.tlbTagged.walker.pwrStateResidencyTicks::UNDEFINED    141844500                       # Cumulative time (in ticks) in various power states
system.cpu.dcache.prefetcher.pwrStateResidencyTicks::UNDEFINED    141844500                       # Cumulative time (in ticks) in various power states
system.cpu.dcache.tags.pwrStateResidencyTicks::UNDEFINED    141844500                       # Cumulative time (in ticks) in various power states
system.cpu.l2cache.pwrStateResidencyTicks::UNDEFINED    141844500                       # Cumulative time (in ticks) in various power states
system.cpu.l2cache.tlbTagged.walker.pwrStateResidencyTicks::UNDEFINED    141844500                       # Cumulative time (in ticks) in various power states
system.cpu.l2cache.prefetcher.pwrStateResidencyTicks::UNDEFINED    141844500                       # Cumulative time (in ticks) in various power states
system.cpu.l2cache.tags.pwrStateResidencyTicks::UNDEFINED    141844500                       # Cumulative time (in ticks) in various power states
system.cpu.toL2Bus.pwrStateResidencyTicks::UNDEFINED    141844500                       # Cumulative time (in ticks) in various power states

---------- End Simulation Statistics   ----------
